* NGSPICE file created from lpopamp_slice_.ext - technology: sky130A

.subckt lpopamp_slice_ im ip o avdd avss en enb bpa bpb bnb bna xp ypm ypp zpm zpp
+ xn ynm ynp znm znp vsub
X0 a_13000_n800# ip ypp avss sky130_fd_pr__nfet_g5v0d10v5 ad=1.75 pd=7.5 as=1.75 ps=7.5 w=7 l=1
X1 a_21550_n1650# bnb a_23200_n1650# avss sky130_fd_pr__nfet_g5v0d10v5 ad=1.75 pd=7.5 as=1.75 ps=7.5 w=7 l=1
X2 ypp zpp a_22900_3700# avdd sky130_fd_pr__pfet_g5v0d10v5 ad=1.25 pd=5.5 as=1.25 ps=5.5 w=5 l=1
X3 a_28450_5000# bpa a_28300_5000# avdd sky130_fd_pr__pfet_g5v0d10v5 ad=1.25 pd=5.5 as=1.25 ps=5.5 w=5 l=1
X4 a_27250_n1650# znp a_27100_n1650# avss sky130_fd_pr__nfet_g5v0d10v5 ad=1.75 pd=7.5 as=1.75 ps=7.5 w=7 l=1
X5 a_26350_4350# bpa a_26200_4350# avdd sky130_fd_pr__pfet_g5v0d10v5 ad=1.25 pd=5.5 as=1.25 ps=5.5 w=5 l=1
X6 a_25150_3050# bpa a_25000_5000# avdd sky130_fd_pr__pfet_g5v0d10v5 ad=1.25 pd=5.5 as=1.25 ps=5.5 w=5 l=1
X7 a_100_3050# bpa avdd avdd sky130_fd_pr__pfet_g5v0d10v5 ad=1.25 pd=5.5 as=1.25 ps=5.5 w=5 l=1
X8 a_18100_900# znp avss avss sky130_fd_pr__nfet_g5v0d10v5 ad=1.75 pd=7.5 as=1.75 ps=7.5 w=7 l=1
X9 a_4000_n800# en bna avss sky130_fd_pr__nfet_g5v0d10v5 ad=1.75 pd=7.5 as=1.75 ps=7.5 w=7 l=1
X10 ynm im xp avdd sky130_fd_pr__pfet_g5v0d10v5 ad=1.25 pd=5.5 as=1.25 ps=5.5 w=5 l=1
X11 a_28150_50# znp a_28000_50# avss sky130_fd_pr__nfet_g5v0d10v5 ad=1.75 pd=7.5 as=1.75 ps=7.5 w=7 l=1
X12 a_1150_n1650# bnb a_5800_50# avss sky130_fd_pr__nfet_g5v0d10v5 ad=1.75 pd=7.5 as=1.75 ps=7.5 w=7 l=1
X13 a_25000_50# znp a_24850_50# avss sky130_fd_pr__nfet_g5v0d10v5 ad=1.75 pd=7.5 as=1.75 ps=7.5 w=7 l=1
X14 a_8200_50# bna a_8050_50# avss sky130_fd_pr__nfet_g5v0d10v5 ad=1.75 pd=7.5 as=1.75 ps=7.5 w=7 l=1
X15 a_28600_5000# bpa a_28450_5000# avdd sky130_fd_pr__pfet_g5v0d10v5 ad=1.25 pd=5.5 as=1.25 ps=5.5 w=5 l=1
X16 a_20050_3050# bpa a_19900_3050# avdd sky130_fd_pr__pfet_g5v0d10v5 ad=1.25 pd=5.5 as=1.25 ps=5.5 w=5 l=1
X17 a_26500_4350# bpa a_26350_4350# avdd sky130_fd_pr__pfet_g5v0d10v5 ad=1.25 pd=5.5 as=1.25 ps=5.5 w=5 l=1
X18 a_13300_n1650# im xn avss sky130_fd_pr__nfet_g5v0d10v5 ad=1.75 pd=7.5 as=1.75 ps=7.5 w=7 l=1
X19 a_25300_5000# bpb a_25150_3050# avdd sky130_fd_pr__pfet_g5v0d10v5 ad=1.25 pd=5.5 as=1.25 ps=5.5 w=5 l=1
X20 a_17200_n1650# znp a_17050_n1650# avss sky130_fd_pr__nfet_g5v0d10v5 ad=1.75 pd=7.5 as=1.75 ps=7.5 w=7 l=1
X21 a_19900_50# znp a_19750_50# avss sky130_fd_pr__nfet_g5v0d10v5 ad=1.75 pd=7.5 as=1.75 ps=7.5 w=7 l=1
X22 xp ip ynp avdd sky130_fd_pr__pfet_g5v0d10v5 ad=1.25 pd=5.5 as=1.25 ps=5.5 w=5 l=1
X23 a_23200_4350# zpp ypp avdd sky130_fd_pr__pfet_g5v0d10v5 ad=1.25 pd=5.5 as=1.25 ps=5.5 w=5 l=1
X24 a_13450_3050# zpp a_13300_3050# avdd sky130_fd_pr__pfet_g5v0d10v5 ad=1.25 pd=5.5 as=1.25 ps=5.5 w=5 l=1
X25 a_8200_3700# bpa a_8050_3700# avdd sky130_fd_pr__pfet_g5v0d10v5 ad=1.25 pd=5.5 as=1.25 ps=5.5 w=5 l=1
X26 avdd bpa bpa avdd sky130_fd_pr__pfet_g5v0d10v5 ad=1.25 pd=5.5 as=1.25 ps=5.5 w=5 l=1
X27 a_4300_n1650# en a_1150_n1650# avss sky130_fd_pr__nfet_g5v0d10v5 ad=1.75 pd=7.5 as=1.75 ps=7.5 w=7 l=1
X28 a_8200_n1650# bna a_8050_n1650# avss sky130_fd_pr__nfet_g5v0d10v5 ad=1.75 pd=7.5 as=1.75 ps=7.5 w=7 l=1
X29 a_17650_n800# znp a_17500_n800# avss sky130_fd_pr__nfet_g5v0d10v5 ad=1.75 pd=7.5 as=1.75 ps=7.5 w=7 l=1
X30 a_14050_5000# zpp a_13900_5000# avdd sky130_fd_pr__pfet_g5v0d10v5 ad=1.25 pd=5.5 as=1.25 ps=5.5 w=5 l=1
X31 a_550_3050# bpb bpb avdd sky130_fd_pr__pfet_g5v0d10v5 ad=1.25 pd=5.5 as=1.25 ps=5.5 w=5 l=1
X32 avdd zpp a_11800_4350# avdd sky130_fd_pr__pfet_g5v0d10v5 ad=1.25 pd=5.5 as=1.25 ps=5.5 w=5 l=1
X33 xn im a_14200_n800# avss sky130_fd_pr__nfet_g5v0d10v5 ad=1.75 pd=7.5 as=1.75 ps=7.5 w=7 l=1
X34 bna enb avss avss sky130_fd_pr__nfet_g5v0d10v5 ad=1.75 pd=7.5 as=3.5 ps=15 w=7 l=1
X35 avdd bpa bpa avdd sky130_fd_pr__pfet_g5v0d10v5 ad=1.25 pd=5.5 as=1.25 ps=5.5 w=5 l=1
X36 a_4450_3050# bpa a_4300_3050# avdd sky130_fd_pr__pfet_g5v0d10v5 ad=1.25 pd=5.5 as=1.25 ps=5.5 w=5 l=1
X37 xn ip a_12400_50# avss sky130_fd_pr__nfet_g5v0d10v5 ad=1.75 pd=7.5 as=1.75 ps=7.5 w=7 l=1
X38 ynm im xp avdd sky130_fd_pr__pfet_g5v0d10v5 ad=1.25 pd=5.5 as=1.25 ps=5.5 w=5 l=1
X39 a_550_3050# bpb bpb avdd sky130_fd_pr__pfet_g5v0d10v5 ad=1.25 pd=5.5 as=1.25 ps=5.5 w=5 l=1
X40 a_13600_3050# zpp a_13450_3050# avdd sky130_fd_pr__pfet_g5v0d10v5 ad=1.25 pd=5.5 as=1.25 ps=5.5 w=5 l=1
X41 a_20050_n1650# znp a_19900_n1650# avss sky130_fd_pr__nfet_g5v0d10v5 ad=1.75 pd=7.5 as=1.75 ps=7.5 w=7 l=1
X42 bpa bpa avdd avdd sky130_fd_pr__pfet_g5v0d10v5 ad=1.25 pd=5.5 as=1.25 ps=5.5 w=5 l=1
X43 a_8650_n800# bna a_8500_n800# avss sky130_fd_pr__nfet_g5v0d10v5 ad=1.75 pd=7.5 as=1.75 ps=7.5 w=7 l=1
X44 a_550_3050# bpb a_4900_5000# avdd sky130_fd_pr__pfet_g5v0d10v5 ad=1.25 pd=5.5 as=1.25 ps=5.5 w=5 l=1
X45 a_550_3050# bpb bpb avdd sky130_fd_pr__pfet_g5v0d10v5 ad=1.25 pd=5.5 as=1.25 ps=5.5 w=5 l=1
X46 a_1150_n1650# bnb a_5200_n800# avss sky130_fd_pr__nfet_g5v0d10v5 ad=1.75 pd=7.5 as=1.75 ps=7.5 w=7 l=1
X47 a_550_3050# bpb bpb avdd sky130_fd_pr__pfet_g5v0d10v5 ad=1.25 pd=5.5 as=1.25 ps=5.5 w=5 l=1
X48 a_17800_n800# znp a_17650_n800# avss sky130_fd_pr__nfet_g5v0d10v5 ad=1.75 pd=7.5 as=1.75 ps=7.5 w=7 l=1
X49 a_7900_3050# bpa a_550_3050# avdd sky130_fd_pr__pfet_g5v0d10v5 ad=1.25 pd=5.5 as=1.25 ps=5.5 w=5 l=1
X50 a_27850_3700# bpb znp avdd sky130_fd_pr__pfet_g5v0d10v5 ad=1.25 pd=5.5 as=1.25 ps=5.5 w=5 l=1
X51 a_14500_n800# bna xn avss sky130_fd_pr__nfet_g5v0d10v5 ad=1.75 pd=7.5 as=1.75 ps=7.5 w=7 l=1
X52 a_10900_5000# zpp avdd avdd sky130_fd_pr__pfet_g5v0d10v5 ad=1.25 pd=5.5 as=1.25 ps=5.5 w=5 l=1
X53 a_4600_3050# bpa a_4450_3050# avdd sky130_fd_pr__pfet_g5v0d10v5 ad=1.25 pd=5.5 as=1.25 ps=5.5 w=5 l=1
X54 avdd zpp a_24400_3700# avdd sky130_fd_pr__pfet_g5v0d10v5 ad=1.25 pd=5.5 as=1.25 ps=5.5 w=5 l=1
X55 a_11200_n800# bna a_11050_n800# avss sky130_fd_pr__nfet_g5v0d10v5 ad=1.75 pd=7.5 as=1.75 ps=7.5 w=7 l=1
X56 a_23500_n1650# bna a_21550_n1650# avss sky130_fd_pr__nfet_g5v0d10v5 ad=1.75 pd=7.5 as=1.75 ps=7.5 w=7 l=1
X57 xn bna a_11800_900# avss sky130_fd_pr__nfet_g5v0d10v5 ad=1.75 pd=7.5 as=1.75 ps=7.5 w=7 l=1
X58 a_27400_n1650# znp a_27250_n1650# avss sky130_fd_pr__nfet_g5v0d10v5 ad=1.75 pd=7.5 as=1.75 ps=7.5 w=7 l=1
X59 bpb bpb a_550_3050# avdd sky130_fd_pr__pfet_g5v0d10v5 ad=1.25 pd=5.5 as=1.25 ps=5.5 w=5 l=1
X60 a_21250_3700# zpp a_21100_3700# avdd sky130_fd_pr__pfet_g5v0d10v5 ad=1.25 pd=5.5 as=1.25 ps=5.5 w=5 l=1
X61 a_23800_900# bna a_23650_900# avss sky130_fd_pr__nfet_g5v0d10v5 ad=1.75 pd=7.5 as=1.75 ps=7.5 w=7 l=1
X62 zpp bnb a_22300_50# avss sky130_fd_pr__nfet_g5v0d10v5 ad=1.75 pd=7.5 as=1.75 ps=7.5 w=7 l=1
X63 a_8800_n800# bna a_8650_n800# avss sky130_fd_pr__nfet_g5v0d10v5 ad=1.75 pd=7.5 as=1.75 ps=7.5 w=7 l=1
X64 a_21250_900# bna a_21100_900# avss sky130_fd_pr__nfet_g5v0d10v5 ad=1.75 pd=7.5 as=1.75 ps=7.5 w=7 l=1
X65 a_2500_50# bnb a_1150_n1650# avss sky130_fd_pr__nfet_g5v0d10v5 ad=1.75 pd=7.5 as=1.75 ps=7.5 w=7 l=1
X66 a_17350_50# znp a_17200_50# avss sky130_fd_pr__nfet_g5v0d10v5 ad=1.75 pd=7.5 as=1.75 ps=7.5 w=7 l=1
X67 a_5500_n800# bnb a_1150_n1650# avss sky130_fd_pr__nfet_g5v0d10v5 ad=1.75 pd=7.5 as=1.75 ps=7.5 w=7 l=1
X68 bpa enb a_550_3050# avdd sky130_fd_pr__pfet_g5v0d10v5 ad=1.25 pd=5.5 as=1.25 ps=5.5 w=5 l=1
X69 a_2200_n800# bnb bnb avss sky130_fd_pr__nfet_g5v0d10v5 ad=1.75 pd=7.5 as=1.75 ps=7.5 w=7 l=1
X70 a_4900_900# bnb a_1150_n1650# avss sky130_fd_pr__nfet_g5v0d10v5 ad=1.75 pd=7.5 as=1.75 ps=7.5 w=7 l=1
X71 a_28000_3700# bpb a_27850_3700# avdd sky130_fd_pr__pfet_g5v0d10v5 ad=1.25 pd=5.5 as=1.25 ps=5.5 w=5 l=1
X72 a_16000_900# znp a_15850_900# avss sky130_fd_pr__nfet_g5v0d10v5 ad=1.75 pd=7.5 as=1.75 ps=7.5 w=7 l=1
X73 a_100_4350# bpa avdd avdd sky130_fd_pr__pfet_g5v0d10v5 ad=1.25 pd=5.5 as=1.25 ps=5.5 w=5 l=1
X74 a_1150_n1650# bnb a_2200_900# avss sky130_fd_pr__nfet_g5v0d10v5 ad=1.75 pd=7.5 as=1.75 ps=7.5 w=7 l=1
X75 a_24700_3700# bpa avdd avdd sky130_fd_pr__pfet_g5v0d10v5 ad=1.25 pd=5.5 as=1.25 ps=5.5 w=5 l=1
X76 ypm im a_13300_900# avss sky130_fd_pr__nfet_g5v0d10v5 ad=1.75 pd=7.5 as=1.75 ps=7.5 w=7 l=1
X77 a_25300_900# znp a_25150_900# avss sky130_fd_pr__nfet_g5v0d10v5 ad=1.75 pd=7.5 as=1.75 ps=7.5 w=7 l=1
X78 zpp zpp a_21250_3700# avdd sky130_fd_pr__pfet_g5v0d10v5 ad=1.25 pd=5.5 as=1.25 ps=5.5 w=5 l=1
X79 a_10150_n1650# bna a_10000_n1650# avss sky130_fd_pr__nfet_g5v0d10v5 ad=1.75 pd=7.5 as=1.75 ps=7.5 w=7 l=1
X80 a_18250_3050# bpa a_18100_3050# avdd sky130_fd_pr__pfet_g5v0d10v5 ad=1.25 pd=5.5 as=1.25 ps=5.5 w=5 l=1
X81 bpa en avdd avdd sky130_fd_pr__pfet_g5v0d10v5 ad=1.25 pd=5.5 as=2.5 ps=11 w=5 l=1
X82 a_20050_4350# bpa a_19900_4350# avdd sky130_fd_pr__pfet_g5v0d10v5 ad=1.25 pd=5.5 as=1.25 ps=5.5 w=5 l=1
X83 ypp zpp a_20800_3050# avdd sky130_fd_pr__pfet_g5v0d10v5 ad=1.25 pd=5.5 as=1.25 ps=5.5 w=5 l=1
X84 a_6400_900# bnb bnb avss sky130_fd_pr__nfet_g5v0d10v5 ad=1.75 pd=7.5 as=1.75 ps=7.5 w=7 l=1
X85 xp im ynm avdd sky130_fd_pr__pfet_g5v0d10v5 ad=1.25 pd=5.5 as=1.25 ps=5.5 w=5 l=1
X86 a_1150_n1650# bna a_1000_n1650# avss sky130_fd_pr__nfet_g5v0d10v5 ad=1.75 pd=7.5 as=1.75 ps=7.5 w=7 l=1
X87 a_27250_50# znp a_27100_50# avss sky130_fd_pr__nfet_g5v0d10v5 ad=1.75 pd=7.5 as=1.75 ps=7.5 w=7 l=1
X88 a_17500_900# znp a_17350_900# avss sky130_fd_pr__nfet_g5v0d10v5 ad=1.75 pd=7.5 as=1.75 ps=7.5 w=7 l=1
X89 xp ip ynp avdd sky130_fd_pr__pfet_g5v0d10v5 ad=1.25 pd=5.5 as=1.25 ps=5.5 w=5 l=1
X90 bnb bnb a_4900_50# avss sky130_fd_pr__nfet_g5v0d10v5 ad=1.75 pd=7.5 as=1.75 ps=7.5 w=7 l=1
X91 ynm znp a_19000_n800# avss sky130_fd_pr__nfet_g5v0d10v5 ad=1.75 pd=7.5 as=1.75 ps=7.5 w=7 l=1
X92 a_7300_50# bna a_1150_n1650# avss sky130_fd_pr__nfet_g5v0d10v5 ad=1.75 pd=7.5 as=1.75 ps=7.5 w=7 l=1
X93 avdd zpp a_15400_5000# avdd sky130_fd_pr__pfet_g5v0d10v5 ad=1.25 pd=5.5 as=1.25 ps=5.5 w=5 l=1
X94 avdd bpa bpa avdd sky130_fd_pr__pfet_g5v0d10v5 ad=1.25 pd=5.5 as=1.25 ps=5.5 w=5 l=1
X95 a_13450_4350# zpp a_13300_4350# avdd sky130_fd_pr__pfet_g5v0d10v5 ad=1.25 pd=5.5 as=1.25 ps=5.5 w=5 l=1
X96 a_12250_5000# zpp a_12100_5000# avdd sky130_fd_pr__pfet_g5v0d10v5 ad=1.25 pd=5.5 as=1.25 ps=5.5 w=5 l=1
X97 avdd bpa bpa avdd sky130_fd_pr__pfet_g5v0d10v5 ad=1.25 pd=5.5 as=1.25 ps=5.5 w=5 l=1
X98 a_18400_3050# bpa a_18250_3050# avdd sky130_fd_pr__pfet_g5v0d10v5 ad=1.25 pd=5.5 as=1.25 ps=5.5 w=5 l=1
X99 a_21850_n800# bnb a_21700_n800# avss sky130_fd_pr__nfet_g5v0d10v5 ad=1.75 pd=7.5 as=1.75 ps=7.5 w=7 l=1
X100 a_19000_50# znp a_18850_50# avss sky130_fd_pr__nfet_g5v0d10v5 ad=1.75 pd=7.5 as=1.75 ps=7.5 w=7 l=1
X101 a_15100_3050# zpp ypm avdd sky130_fd_pr__pfet_g5v0d10v5 ad=1.25 pd=5.5 as=1.25 ps=5.5 w=5 l=1
X102 avdd bpa bpa avdd sky130_fd_pr__pfet_g5v0d10v5 ad=1.25 pd=5.5 as=1.25 ps=5.5 w=5 l=1
X103 a_250_n1650# bna a_100_n1650# avss sky130_fd_pr__nfet_g5v0d10v5 ad=1.75 pd=7.5 as=1.75 ps=7.5 w=7 l=1
X104 a_550_3050# bpb a_6700_4350# avdd sky130_fd_pr__pfet_g5v0d10v5 ad=1.25 pd=5.5 as=1.25 ps=5.5 w=5 l=1
X105 a_550_3050# enb bpa avdd sky130_fd_pr__pfet_g5v0d10v5 ad=1.25 pd=5.5 as=1.25 ps=5.5 w=5 l=1
X106 ynm im xp avdd sky130_fd_pr__pfet_g5v0d10v5 ad=1.25 pd=5.5 as=1.25 ps=5.5 w=5 l=1
X107 a_4450_4350# bpa a_4300_4350# avdd sky130_fd_pr__pfet_g5v0d10v5 ad=1.25 pd=5.5 as=1.25 ps=5.5 w=5 l=1
X108 ynm im xp avdd sky130_fd_pr__pfet_g5v0d10v5 ad=1.25 pd=5.5 as=1.25 ps=5.5 w=5 l=1
X109 a_550_3050# bpb bpb avdd sky130_fd_pr__pfet_g5v0d10v5 ad=1.25 pd=5.5 as=1.25 ps=5.5 w=5 l=1
X110 a_19300_n800# znp ynm avss sky130_fd_pr__nfet_g5v0d10v5 ad=1.75 pd=7.5 as=1.75 ps=7.5 w=7 l=1
X111 a_550_3050# bpb bpb avdd sky130_fd_pr__pfet_g5v0d10v5 ad=1.25 pd=5.5 as=1.25 ps=5.5 w=5 l=1
X112 a_15700_5000# bpa avdd avdd sky130_fd_pr__pfet_g5v0d10v5 ad=1.25 pd=5.5 as=1.25 ps=5.5 w=5 l=1
X113 a_13600_4350# zpp a_13450_4350# avdd sky130_fd_pr__pfet_g5v0d10v5 ad=1.25 pd=5.5 as=1.25 ps=5.5 w=5 l=1
X114 bpa bpa avdd avdd sky130_fd_pr__pfet_g5v0d10v5 ad=1.25 pd=5.5 as=1.25 ps=5.5 w=5 l=1
X115 a_12400_5000# zpp a_12250_5000# avdd sky130_fd_pr__pfet_g5v0d10v5 ad=1.25 pd=5.5 as=1.25 ps=5.5 w=5 l=1
X116 bpa enb a_550_3050# avdd sky130_fd_pr__pfet_g5v0d10v5 ad=1.25 pd=5.5 as=1.25 ps=5.5 w=5 l=1
X117 bpa bpa avdd avdd sky130_fd_pr__pfet_g5v0d10v5 ad=1.25 pd=5.5 as=1.25 ps=5.5 w=5 l=1
X118 a_11650_50# bna a_11500_50# avss sky130_fd_pr__nfet_g5v0d10v5 ad=1.75 pd=7.5 as=1.75 ps=7.5 w=7 l=1
X119 a_22000_n800# bnb a_21850_n800# avss sky130_fd_pr__nfet_g5v0d10v5 ad=1.75 pd=7.5 as=1.75 ps=7.5 w=7 l=1
X120 avss znp a_20200_n1650# avss sky130_fd_pr__nfet_g5v0d10v5 ad=1.75 pd=7.5 as=1.75 ps=7.5 w=7 l=1
X121 a_9850_50# bna a_9700_50# avss sky130_fd_pr__nfet_g5v0d10v5 ad=1.75 pd=7.5 as=1.75 ps=7.5 w=7 l=1
X122 a_24250_n1650# bna a_24100_n1650# avss sky130_fd_pr__nfet_g5v0d10v5 ad=1.75 pd=7.5 as=1.75 ps=7.5 w=7 l=1
X123 bpa bpa avdd avdd sky130_fd_pr__pfet_g5v0d10v5 ad=1.25 pd=5.5 as=1.25 ps=5.5 w=5 l=1
X124 a_7900_4350# bpa a_550_3050# avdd sky130_fd_pr__pfet_g5v0d10v5 ad=1.25 pd=5.5 as=1.25 ps=5.5 w=5 l=1
X125 a_28150_n1650# znp a_28000_n1650# avss sky130_fd_pr__nfet_g5v0d10v5 ad=1.75 pd=7.5 as=1.75 ps=7.5 w=7 l=1
X126 a_6700_5000# bpb a_550_3050# avdd sky130_fd_pr__pfet_g5v0d10v5 ad=1.25 pd=5.5 as=1.25 ps=5.5 w=5 l=1
X127 a_4600_4350# bpa a_4450_4350# avdd sky130_fd_pr__pfet_g5v0d10v5 ad=1.25 pd=5.5 as=1.25 ps=5.5 w=5 l=1
X128 bpb bpb a_550_3050# avdd sky130_fd_pr__pfet_g5v0d10v5 ad=1.25 pd=5.5 as=1.25 ps=5.5 w=5 l=1
X129 bpb bpb a_550_3050# avdd sky130_fd_pr__pfet_g5v0d10v5 ad=1.25 pd=5.5 as=1.25 ps=5.5 w=5 l=1
X130 a_26200_3700# bpa a_25150_3050# avdd sky130_fd_pr__pfet_g5v0d10v5 ad=1.25 pd=5.5 as=1.25 ps=5.5 w=5 l=1
X131 a_10300_n1650# bna a_10150_n1650# avss sky130_fd_pr__nfet_g5v0d10v5 ad=1.75 pd=7.5 as=1.75 ps=7.5 w=7 l=1
X132 a_21550_n1650# bna a_21400_50# avss sky130_fd_pr__nfet_g5v0d10v5 ad=1.75 pd=7.5 as=1.75 ps=7.5 w=7 l=1
X133 a_14200_n1650# im ypm avss sky130_fd_pr__nfet_g5v0d10v5 ad=1.75 pd=7.5 as=1.75 ps=7.5 w=7 l=1
X134 a_1600_50# bnb bnb avss sky130_fd_pr__nfet_g5v0d10v5 ad=1.75 pd=7.5 as=1.75 ps=7.5 w=7 l=1
X135 a_18100_n1650# znp avss avss sky130_fd_pr__nfet_g5v0d10v5 ad=1.75 pd=7.5 as=1.75 ps=7.5 w=7 l=1
X136 a_25750_3050# bpb znp avdd sky130_fd_pr__pfet_g5v0d10v5 ad=1.25 pd=5.5 as=1.25 ps=5.5 w=5 l=1
X137 a_16450_50# znp a_16300_50# avss sky130_fd_pr__nfet_g5v0d10v5 ad=1.75 pd=7.5 as=1.75 ps=7.5 w=7 l=1
X138 a_20650_900# bna a_20500_900# avss sky130_fd_pr__nfet_g5v0d10v5 ad=1.75 pd=7.5 as=1.75 ps=7.5 w=7 l=1
X139 avdd zpp a_22300_3050# avdd sky130_fd_pr__pfet_g5v0d10v5 ad=1.25 pd=5.5 as=1.25 ps=5.5 w=5 l=1
X140 ypm zpp a_14800_3700# avdd sky130_fd_pr__pfet_g5v0d10v5 ad=1.25 pd=5.5 as=1.25 ps=5.5 w=5 l=1
X141 a_1300_n1650# bnb a_1150_n1650# avss sky130_fd_pr__nfet_g5v0d10v5 ad=1.75 pd=7.5 as=1.75 ps=7.5 w=7 l=1
X142 a_11650_3700# zpp a_11500_3700# avdd sky130_fd_pr__pfet_g5v0d10v5 ad=1.25 pd=5.5 as=1.25 ps=5.5 w=5 l=1
X143 a_18250_4350# bpa a_18100_4350# avdd sky130_fd_pr__pfet_g5v0d10v5 ad=1.25 pd=5.5 as=1.25 ps=5.5 w=5 l=1
X144 a_5200_n1650# bnb bnb avss sky130_fd_pr__nfet_g5v0d10v5 ad=1.75 pd=7.5 as=1.75 ps=7.5 w=7 l=1
X145 a_9100_n1650# bna a_8950_n1650# avss sky130_fd_pr__nfet_g5v0d10v5 ad=1.75 pd=7.5 as=1.75 ps=7.5 w=7 l=1
X146 znp znp a_26500_n800# avss sky130_fd_pr__nfet_g5v0d10v5 ad=1.75 pd=7.5 as=1.75 ps=7.5 w=7 l=1
X147 ypp zpp a_22900_5000# avdd sky130_fd_pr__pfet_g5v0d10v5 ad=1.25 pd=5.5 as=1.25 ps=5.5 w=5 l=1
X148 a_1150_n1650# bnb a_1600_900# avss sky130_fd_pr__nfet_g5v0d10v5 ad=1.75 pd=7.5 as=1.75 ps=7.5 w=7 l=1
X149 ypp zpp a_20800_4350# avdd sky130_fd_pr__pfet_g5v0d10v5 ad=1.25 pd=5.5 as=1.25 ps=5.5 w=5 l=1
X150 a_21550_n1650# bnb a_23200_n800# avss sky130_fd_pr__nfet_g5v0d10v5 ad=1.75 pd=7.5 as=1.75 ps=7.5 w=7 l=1
X151 ypp ip a_12700_900# avss sky130_fd_pr__nfet_g5v0d10v5 ad=1.75 pd=7.5 as=1.75 ps=7.5 w=7 l=1
X152 a_550_3050# bpb bpb avdd sky130_fd_pr__pfet_g5v0d10v5 ad=1.25 pd=5.5 as=1.25 ps=5.5 w=5 l=1
X153 a_24700_900# znp avss avss sky130_fd_pr__nfet_g5v0d10v5 ad=1.75 pd=7.5 as=1.75 ps=7.5 w=7 l=1
X154 a_25900_3050# bpb a_25750_3050# avdd sky130_fd_pr__pfet_g5v0d10v5 ad=1.25 pd=5.5 as=1.25 ps=5.5 w=5 l=1
X155 a_400_n1650# bna a_250_n1650# avss sky130_fd_pr__nfet_g5v0d10v5 ad=1.75 pd=7.5 as=1.75 ps=7.5 w=7 l=1
X156 avdd bpa bpa avdd sky130_fd_pr__pfet_g5v0d10v5 ad=1.25 pd=5.5 as=1.25 ps=5.5 w=5 l=1
X157 a_17050_n1650# znp a_16900_n1650# avss sky130_fd_pr__nfet_g5v0d10v5 ad=1.75 pd=7.5 as=1.75 ps=7.5 w=7 l=1
X158 a_550_3050# bpb bpb avdd sky130_fd_pr__pfet_g5v0d10v5 ad=1.25 pd=5.5 as=1.25 ps=5.5 w=5 l=1
X159 a_250_n800# bna a_100_n800# avss sky130_fd_pr__nfet_g5v0d10v5 ad=1.75 pd=7.5 as=1.75 ps=7.5 w=7 l=1
X160 a_22150_900# bnb a_22000_900# avss sky130_fd_pr__nfet_g5v0d10v5 ad=1.75 pd=7.5 as=1.75 ps=7.5 w=7 l=1
X161 a_22600_3050# zpp avdd avdd sky130_fd_pr__pfet_g5v0d10v5 ad=1.25 pd=5.5 as=1.25 ps=5.5 w=5 l=1
X162 a_26350_50# znp a_26200_50# avss sky130_fd_pr__nfet_g5v0d10v5 ad=1.75 pd=7.5 as=1.75 ps=7.5 w=7 l=1
X163 a_18400_4350# bpa a_18250_4350# avdd sky130_fd_pr__pfet_g5v0d10v5 ad=1.25 pd=5.5 as=1.25 ps=5.5 w=5 l=1
X164 a_11800_3700# zpp a_11650_3700# avdd sky130_fd_pr__pfet_g5v0d10v5 ad=1.25 pd=5.5 as=1.25 ps=5.5 w=5 l=1
X165 ynm im xp avdd sky130_fd_pr__pfet_g5v0d10v5 ad=1.25 pd=5.5 as=1.25 ps=5.5 w=5 l=1
X166 a_6400_50# bnb bnb avss sky130_fd_pr__nfet_g5v0d10v5 ad=1.75 pd=7.5 as=1.75 ps=7.5 w=7 l=1
X167 a_15100_4350# zpp ypm avdd sky130_fd_pr__pfet_g5v0d10v5 ad=1.25 pd=5.5 as=1.25 ps=5.5 w=5 l=1
X168 a_5800_900# bnb bnb avss sky130_fd_pr__nfet_g5v0d10v5 ad=1.75 pd=7.5 as=1.75 ps=7.5 w=7 l=1
X169 a_16900_900# znp ynp avss sky130_fd_pr__nfet_g5v0d10v5 ad=1.75 pd=7.5 as=1.75 ps=7.5 w=7 l=1
X170 a_26800_n800# znp znp avss sky130_fd_pr__nfet_g5v0d10v5 ad=1.75 pd=7.5 as=1.75 ps=7.5 w=7 l=1
X171 a_8050_n1650# bna a_7900_n1650# avss sky130_fd_pr__nfet_g5v0d10v5 ad=1.75 pd=7.5 as=1.75 ps=7.5 w=7 l=1
X172 bnb bnb a_3100_900# avss sky130_fd_pr__nfet_g5v0d10v5 ad=1.75 pd=7.5 as=1.75 ps=7.5 w=7 l=1
X173 xn im a_14200_900# avss sky130_fd_pr__nfet_g5v0d10v5 ad=1.75 pd=7.5 as=1.75 ps=7.5 w=7 l=1
X174 a_23500_n800# bna a_21550_n1650# avss sky130_fd_pr__nfet_g5v0d10v5 ad=1.75 pd=7.5 as=1.75 ps=7.5 w=7 l=1
X175 a_20500_n1650# bna avss avss sky130_fd_pr__nfet_g5v0d10v5 ad=1.75 pd=7.5 as=1.75 ps=7.5 w=7 l=1
X176 a_26200_900# znp a_26050_900# avss sky130_fd_pr__nfet_g5v0d10v5 ad=1.75 pd=7.5 as=1.75 ps=7.5 w=7 l=1
X177 a_20200_n800# znp a_20050_n800# avss sky130_fd_pr__nfet_g5v0d10v5 ad=1.75 pd=7.5 as=1.75 ps=7.5 w=7 l=1
X178 a_24400_n1650# bna a_24250_n1650# avss sky130_fd_pr__nfet_g5v0d10v5 ad=1.75 pd=7.5 as=1.75 ps=7.5 w=7 l=1
X179 bpa bpa avdd avdd sky130_fd_pr__pfet_g5v0d10v5 ad=1.25 pd=5.5 as=1.25 ps=5.5 w=5 l=1
X180 a_28300_n1650# znp a_28150_n1650# avss sky130_fd_pr__nfet_g5v0d10v5 ad=1.75 pd=7.5 as=1.75 ps=7.5 w=7 l=1
X181 a_400_n800# bna a_250_n800# avss sky130_fd_pr__nfet_g5v0d10v5 ad=1.75 pd=7.5 as=1.75 ps=7.5 w=7 l=1
X182 bpb bpb a_550_3050# avdd sky130_fd_pr__pfet_g5v0d10v5 ad=1.25 pd=5.5 as=1.25 ps=5.5 w=5 l=1
X183 a_8200_5000# bpa a_8050_5000# avdd sky130_fd_pr__pfet_g5v0d10v5 ad=1.25 pd=5.5 as=1.25 ps=5.5 w=5 l=1
X184 bpa enb a_550_3050# avdd sky130_fd_pr__pfet_g5v0d10v5 ad=1.25 pd=5.5 as=1.25 ps=5.5 w=5 l=1
X185 a_7300_900# bna a_1150_n1650# avss sky130_fd_pr__nfet_g5v0d10v5 ad=1.75 pd=7.5 as=1.75 ps=7.5 w=7 l=1
X186 a_18400_900# znp a_18250_900# avss sky130_fd_pr__nfet_g5v0d10v5 ad=1.75 pd=7.5 as=1.75 ps=7.5 w=7 l=1
X187 avss bna a_10600_50# avss sky130_fd_pr__nfet_g5v0d10v5 ad=1.75 pd=7.5 as=1.75 ps=7.5 w=7 l=1
X188 a_8950_50# bna a_8800_50# avss sky130_fd_pr__nfet_g5v0d10v5 ad=1.75 pd=7.5 as=1.75 ps=7.5 w=7 l=1
X189 a_28000_50# znp a_27850_50# avss sky130_fd_pr__nfet_g5v0d10v5 ad=1.75 pd=7.5 as=1.75 ps=7.5 w=7 l=1
X190 xp ip ynp avdd sky130_fd_pr__pfet_g5v0d10v5 ad=1.25 pd=5.5 as=1.25 ps=5.5 w=5 l=1
X191 a_25150_3050# bpa a_27100_3050# avdd sky130_fd_pr__pfet_g5v0d10v5 ad=1.25 pd=5.5 as=1.25 ps=5.5 w=5 l=1
X192 xp ip ynp avdd sky130_fd_pr__pfet_g5v0d10v5 ad=1.25 pd=5.5 as=1.25 ps=5.5 w=5 l=1
X193 avdd zpp a_13000_3700# avdd sky130_fd_pr__pfet_g5v0d10v5 ad=1.25 pd=5.5 as=1.25 ps=5.5 w=5 l=1
X194 a_27850_5000# bpb znp avdd sky130_fd_pr__pfet_g5v0d10v5 ad=1.25 pd=5.5 as=1.25 ps=5.5 w=5 l=1
X195 a_25750_4350# bpb znp avdd sky130_fd_pr__pfet_g5v0d10v5 ad=1.25 pd=5.5 as=1.25 ps=5.5 w=5 l=1
X196 a_28150_n800# znp a_28000_n800# avss sky130_fd_pr__nfet_g5v0d10v5 ad=1.75 pd=7.5 as=1.75 ps=7.5 w=7 l=1
X197 avdd zpp a_24400_5000# avdd sky130_fd_pr__pfet_g5v0d10v5 ad=1.25 pd=5.5 as=1.25 ps=5.5 w=5 l=1
X198 a_850_50# bna a_700_50# avss sky130_fd_pr__nfet_g5v0d10v5 ad=1.75 pd=7.5 as=1.75 ps=7.5 w=7 l=1
X199 avdd zpp a_22300_4350# avdd sky130_fd_pr__pfet_g5v0d10v5 ad=1.25 pd=5.5 as=1.25 ps=5.5 w=5 l=1
X200 a_20650_50# bna a_20500_50# avss sky130_fd_pr__nfet_g5v0d10v5 ad=1.75 pd=7.5 as=1.75 ps=7.5 w=7 l=1
X201 a_21250_5000# zpp a_21100_5000# avdd sky130_fd_pr__pfet_g5v0d10v5 ad=1.25 pd=5.5 as=1.25 ps=5.5 w=5 l=1
X202 a_550_3050# bpb bpb avdd sky130_fd_pr__pfet_g5v0d10v5 ad=1.25 pd=5.5 as=1.25 ps=5.5 w=5 l=1
X203 a_27400_3050# bpb a_25150_3050# avdd sky130_fd_pr__pfet_g5v0d10v5 ad=1.25 pd=5.5 as=1.25 ps=5.5 w=5 l=1
X204 a_19900_3700# bpa xp avdd sky130_fd_pr__pfet_g5v0d10v5 ad=1.25 pd=5.5 as=1.25 ps=5.5 w=5 l=1
X205 avss bna a_15400_50# avss sky130_fd_pr__nfet_g5v0d10v5 ad=1.75 pd=7.5 as=1.75 ps=7.5 w=7 l=1
X206 avdd bpa a_4000_3700# avdd sky130_fd_pr__pfet_g5v0d10v5 ad=1.25 pd=5.5 as=1.25 ps=5.5 w=5 l=1
X207 a_24100_3050# zpp ypp avdd sky130_fd_pr__pfet_g5v0d10v5 ad=1.25 pd=5.5 as=1.25 ps=5.5 w=5 l=1
X208 ynp ip xp avdd sky130_fd_pr__pfet_g5v0d10v5 ad=1.25 pd=5.5 as=1.25 ps=5.5 w=5 l=1
X209 a_13300_3700# zpp avdd avdd sky130_fd_pr__pfet_g5v0d10v5 ad=1.25 pd=5.5 as=1.25 ps=5.5 w=5 l=1
X210 a_28000_5000# bpb a_27850_5000# avdd sky130_fd_pr__pfet_g5v0d10v5 ad=1.25 pd=5.5 as=1.25 ps=5.5 w=5 l=1
X211 a_25900_4350# bpb a_25750_4350# avdd sky130_fd_pr__pfet_g5v0d10v5 ad=1.25 pd=5.5 as=1.25 ps=5.5 w=5 l=1
X212 a_28300_n800# znp a_28150_n800# avss sky130_fd_pr__nfet_g5v0d10v5 ad=1.75 pd=7.5 as=1.75 ps=7.5 w=7 l=1
X213 a_24700_5000# bpa avdd avdd sky130_fd_pr__pfet_g5v0d10v5 ad=1.25 pd=5.5 as=1.25 ps=5.5 w=5 l=1
X214 a_22600_4350# zpp avdd avdd sky130_fd_pr__pfet_g5v0d10v5 ad=1.25 pd=5.5 as=1.25 ps=5.5 w=5 l=1
X215 zpp zpp a_21250_5000# avdd sky130_fd_pr__pfet_g5v0d10v5 ad=1.25 pd=5.5 as=1.25 ps=5.5 w=5 l=1
X216 a_12850_3050# zpp a_12700_3050# avdd sky130_fd_pr__pfet_g5v0d10v5 ad=1.25 pd=5.5 as=1.25 ps=5.5 w=5 l=1
X217 bpb bpb a_550_3050# avdd sky130_fd_pr__pfet_g5v0d10v5 ad=1.25 pd=5.5 as=1.25 ps=5.5 w=5 l=1
X218 a_4300_3700# bpa avdd avdd sky130_fd_pr__pfet_g5v0d10v5 ad=1.25 pd=5.5 as=1.25 ps=5.5 w=5 l=1
X219 a_21250_n1650# bna a_21100_n1650# avss sky130_fd_pr__nfet_g5v0d10v5 ad=1.75 pd=7.5 as=1.75 ps=7.5 w=7 l=1
X220 bpa en avdd avdd sky130_fd_pr__pfet_g5v0d10v5 ad=1.25 pd=5.5 as=2.5 ps=11 w=5 l=1
X221 a_25150_n1650# znp a_25000_n1650# avss sky130_fd_pr__nfet_g5v0d10v5 ad=1.75 pd=7.5 as=1.75 ps=7.5 w=7 l=1
X222 a_25450_50# znp a_25300_50# avss sky130_fd_pr__nfet_g5v0d10v5 ad=1.75 pd=7.5 as=1.75 ps=7.5 w=7 l=1
X223 a_17050_n800# znp a_16900_n800# avss sky130_fd_pr__nfet_g5v0d10v5 ad=1.75 pd=7.5 as=1.75 ps=7.5 w=7 l=1
X224 a_21550_n1650# bna a_21400_900# avss sky130_fd_pr__nfet_g5v0d10v5 ad=1.75 pd=7.5 as=1.75 ps=7.5 w=7 l=1
X225 xn im a_13600_n800# avss sky130_fd_pr__nfet_g5v0d10v5 ad=1.75 pd=7.5 as=1.75 ps=7.5 w=7 l=1
X226 a_5500_50# bnb a_1150_n1650# avss sky130_fd_pr__nfet_g5v0d10v5 ad=1.75 pd=7.5 as=1.75 ps=7.5 w=7 l=1
X227 a_3850_3050# bpa a_3700_3050# avdd sky130_fd_pr__pfet_g5v0d10v5 ad=1.25 pd=5.5 as=1.25 ps=5.5 w=5 l=1
X228 a_10450_n800# bna a_10300_n800# avss sky130_fd_pr__nfet_g5v0d10v5 ad=1.75 pd=7.5 as=1.75 ps=7.5 w=7 l=1
X229 avdd en bpa avdd sky130_fd_pr__pfet_g5v0d10v5 ad=1.25 pd=5.5 as=1.25 ps=5.5 w=5 l=1
X230 a_13000_3050# zpp a_12850_3050# avdd sky130_fd_pr__pfet_g5v0d10v5 ad=1.25 pd=5.5 as=1.25 ps=5.5 w=5 l=1
X231 bnb bnb a_2500_900# avss sky130_fd_pr__nfet_g5v0d10v5 ad=1.75 pd=7.5 as=1.75 ps=7.5 w=7 l=1
X232 a_8050_n800# bna a_7900_n800# avss sky130_fd_pr__nfet_g5v0d10v5 ad=1.75 pd=7.5 as=1.75 ps=7.5 w=7 l=1
X233 xn im a_13600_900# avss sky130_fd_pr__nfet_g5v0d10v5 ad=1.75 pd=7.5 as=1.75 ps=7.5 w=7 l=1
X234 a_11200_n1650# bna a_11050_n1650# avss sky130_fd_pr__nfet_g5v0d10v5 ad=1.75 pd=7.5 as=1.75 ps=7.5 w=7 l=1
X235 a_25600_900# znp a_25450_900# avss sky130_fd_pr__nfet_g5v0d10v5 ad=1.75 pd=7.5 as=1.75 ps=7.5 w=7 l=1
X236 a_1150_n1650# en a_4600_n800# avss sky130_fd_pr__nfet_g5v0d10v5 ad=1.75 pd=7.5 as=1.75 ps=7.5 w=7 l=1
X237 a_15100_n1650# bna a_14950_n1650# avss sky130_fd_pr__nfet_g5v0d10v5 ad=1.75 pd=7.5 as=1.75 ps=7.5 w=7 l=1
X238 bnb bnb a_1300_n800# avss sky130_fd_pr__nfet_g5v0d10v5 ad=1.75 pd=7.5 as=1.75 ps=7.5 w=7 l=1
X239 a_13900_n800# im xn avss sky130_fd_pr__nfet_g5v0d10v5 ad=1.75 pd=7.5 as=1.75 ps=7.5 w=7 l=1
X240 a_4000_3050# bpa a_3850_3050# avdd sky130_fd_pr__pfet_g5v0d10v5 ad=1.25 pd=5.5 as=1.25 ps=5.5 w=5 l=1
X241 ypp zpp a_23800_3700# avdd sky130_fd_pr__pfet_g5v0d10v5 ad=1.25 pd=5.5 as=1.25 ps=5.5 w=5 l=1
X242 a_10600_n800# bna a_10450_n800# avss sky130_fd_pr__nfet_g5v0d10v5 ad=1.75 pd=7.5 as=1.75 ps=7.5 w=7 l=1
X243 a_2200_n1650# bnb bnb avss sky130_fd_pr__nfet_g5v0d10v5 ad=1.75 pd=7.5 as=1.75 ps=7.5 w=7 l=1
X244 a_6700_900# bnb a_1150_n1650# avss sky130_fd_pr__nfet_g5v0d10v5 ad=1.75 pd=7.5 as=1.75 ps=7.5 w=7 l=1
X245 a_25150_3050# bpa a_27100_4350# avdd sky130_fd_pr__pfet_g5v0d10v5 ad=1.25 pd=5.5 as=1.25 ps=5.5 w=5 l=1
X246 a_17800_900# znp a_17650_900# avss sky130_fd_pr__nfet_g5v0d10v5 ad=1.75 pd=7.5 as=1.75 ps=7.5 w=7 l=1
X247 a_20650_3700# zpp a_20500_3700# avdd sky130_fd_pr__pfet_g5v0d10v5 ad=1.25 pd=5.5 as=1.25 ps=5.5 w=5 l=1
X248 a_12100_50# ip xn avss sky130_fd_pr__nfet_g5v0d10v5 ad=1.75 pd=7.5 as=1.75 ps=7.5 w=7 l=1
X249 a_8050_50# bna a_7900_50# avss sky130_fd_pr__nfet_g5v0d10v5 ad=1.75 pd=7.5 as=1.75 ps=7.5 w=7 l=1
X250 a_6100_n1650# bnb a_1150_n1650# avss sky130_fd_pr__nfet_g5v0d10v5 ad=1.75 pd=7.5 as=1.75 ps=7.5 w=7 l=1
X251 a_550_3050# bpb bpb avdd sky130_fd_pr__pfet_g5v0d10v5 ad=1.25 pd=5.5 as=1.25 ps=5.5 w=5 l=1
X252 a_1150_n1650# en a_4000_900# avss sky130_fd_pr__nfet_g5v0d10v5 ad=1.75 pd=7.5 as=1.75 ps=7.5 w=7 l=1
X253 a_15250_900# bna a_15100_900# avss sky130_fd_pr__nfet_g5v0d10v5 ad=1.75 pd=7.5 as=1.75 ps=7.5 w=7 l=1
X254 a_27100_900# znp a_26950_900# avss sky130_fd_pr__nfet_g5v0d10v5 ad=1.75 pd=7.5 as=1.75 ps=7.5 w=7 l=1
X255 a_4900_n800# bnb a_1150_n1650# avss sky130_fd_pr__nfet_g5v0d10v5 ad=1.75 pd=7.5 as=1.75 ps=7.5 w=7 l=1
X256 a_18100_3700# bpa avdd avdd sky130_fd_pr__pfet_g5v0d10v5 ad=1.25 pd=5.5 as=1.25 ps=5.5 w=5 l=1
X257 a_1600_n800# bnb bnb avss sky130_fd_pr__nfet_g5v0d10v5 ad=1.75 pd=7.5 as=1.75 ps=7.5 w=7 l=1
X258 ypm im a_13900_n1650# avss sky130_fd_pr__nfet_g5v0d10v5 ad=1.75 pd=7.5 as=1.75 ps=7.5 w=7 l=1
X259 avss znp a_17800_n1650# avss sky130_fd_pr__nfet_g5v0d10v5 ad=1.75 pd=7.5 as=1.75 ps=7.5 w=7 l=1
X260 a_8200_900# bna a_8050_900# avss sky130_fd_pr__nfet_g5v0d10v5 ad=1.75 pd=7.5 as=1.75 ps=7.5 w=7 l=1
X261 a_20800_3700# zpp a_20650_3700# avdd sky130_fd_pr__pfet_g5v0d10v5 ad=1.25 pd=5.5 as=1.25 ps=5.5 w=5 l=1
X262 a_27400_4350# bpb a_25150_3050# avdd sky130_fd_pr__pfet_g5v0d10v5 ad=1.25 pd=5.5 as=1.25 ps=5.5 w=5 l=1
X263 a_19300_900# znp ynm avss sky130_fd_pr__nfet_g5v0d10v5 ad=1.75 pd=7.5 as=1.75 ps=7.5 w=7 l=1
X264 a_26200_5000# bpa a_25150_3050# avdd sky130_fd_pr__pfet_g5v0d10v5 ad=1.25 pd=5.5 as=1.25 ps=5.5 w=5 l=1
X265 a_17650_3050# bpa a_17500_3050# avdd sky130_fd_pr__pfet_g5v0d10v5 ad=1.25 pd=5.5 as=1.25 ps=5.5 w=5 l=1
X266 bpb bpb a_550_3050# avdd sky130_fd_pr__pfet_g5v0d10v5 ad=1.25 pd=5.5 as=1.25 ps=5.5 w=5 l=1
X267 a_24100_4350# zpp ypp avdd sky130_fd_pr__pfet_g5v0d10v5 ad=1.25 pd=5.5 as=1.25 ps=5.5 w=5 l=1
X268 bnb bnb a_4900_n1650# avss sky130_fd_pr__nfet_g5v0d10v5 ad=1.75 pd=7.5 as=1.75 ps=7.5 w=7 l=1
X269 a_8950_n1650# bna a_8800_n1650# avss sky130_fd_pr__nfet_g5v0d10v5 ad=1.75 pd=7.5 as=1.75 ps=7.5 w=7 l=1
X270 avdd zpp a_14200_3050# avdd sky130_fd_pr__pfet_g5v0d10v5 ad=1.25 pd=5.5 as=1.25 ps=5.5 w=5 l=1
X271 bpa bpa avdd avdd sky130_fd_pr__pfet_g5v0d10v5 ad=1.25 pd=5.5 as=1.25 ps=5.5 w=5 l=1
X272 a_21400_n1650# bna a_21250_n1650# avss sky130_fd_pr__nfet_g5v0d10v5 ad=1.75 pd=7.5 as=1.75 ps=7.5 w=7 l=1
X273 a_14650_50# bna a_14500_50# avss sky130_fd_pr__nfet_g5v0d10v5 ad=1.75 pd=7.5 as=1.75 ps=7.5 w=7 l=1
X274 a_25300_n1650# znp a_25150_n1650# avss sky130_fd_pr__nfet_g5v0d10v5 ad=1.75 pd=7.5 as=1.75 ps=7.5 w=7 l=1
X275 a_18550_n800# znp a_18400_n800# avss sky130_fd_pr__nfet_g5v0d10v5 ad=1.75 pd=7.5 as=1.75 ps=7.5 w=7 l=1
X276 ypm zpp a_14800_5000# avdd sky130_fd_pr__pfet_g5v0d10v5 ad=1.25 pd=5.5 as=1.25 ps=5.5 w=5 l=1
X277 a_400_900# bna a_250_900# avss sky130_fd_pr__nfet_g5v0d10v5 ad=1.75 pd=7.5 as=1.75 ps=7.5 w=7 l=1
X278 avdd bpa bpa avdd sky130_fd_pr__pfet_g5v0d10v5 ad=1.25 pd=5.5 as=1.25 ps=5.5 w=5 l=1
X279 a_12850_4350# zpp a_12700_4350# avdd sky130_fd_pr__pfet_g5v0d10v5 ad=1.25 pd=5.5 as=1.25 ps=5.5 w=5 l=1
X280 a_15250_n800# bna a_15100_n800# avss sky130_fd_pr__nfet_g5v0d10v5 ad=1.75 pd=7.5 as=1.75 ps=7.5 w=7 l=1
X281 a_11650_5000# zpp a_11500_5000# avdd sky130_fd_pr__pfet_g5v0d10v5 ad=1.25 pd=5.5 as=1.25 ps=5.5 w=5 l=1
X282 a_550_3050# bpb bpb avdd sky130_fd_pr__pfet_g5v0d10v5 ad=1.25 pd=5.5 as=1.25 ps=5.5 w=5 l=1
X283 a_17800_3050# bpa a_17650_3050# avdd sky130_fd_pr__pfet_g5v0d10v5 ad=1.25 pd=5.5 as=1.25 ps=5.5 w=5 l=1
X284 a_14500_3050# zpp avdd avdd sky130_fd_pr__pfet_g5v0d10v5 ad=1.25 pd=5.5 as=1.25 ps=5.5 w=5 l=1
X285 a_11200_3050# zpp a_11050_3050# avdd sky130_fd_pr__pfet_g5v0d10v5 ad=1.25 pd=5.5 as=1.25 ps=5.5 w=5 l=1
X286 bpb bna a_9400_n800# avss sky130_fd_pr__nfet_g5v0d10v5 ad=1.75 pd=7.5 as=1.75 ps=7.5 w=7 l=1
X287 a_550_3050# bpb a_4900_5000# avdd sky130_fd_pr__pfet_g5v0d10v5 ad=1.25 pd=5.5 as=1.25 ps=5.5 w=5 l=1
X288 a_3850_4350# bpa a_3700_4350# avdd sky130_fd_pr__pfet_g5v0d10v5 ad=1.25 pd=5.5 as=1.25 ps=5.5 w=5 l=1
X289 avdd en bpa avdd sky130_fd_pr__pfet_g5v0d10v5 ad=1.25 pd=5.5 as=1.25 ps=5.5 w=5 l=1
X290 bnb bnb a_6100_n800# avss sky130_fd_pr__nfet_g5v0d10v5 ad=1.75 pd=7.5 as=1.75 ps=7.5 w=7 l=1
X291 a_550_3050# bpb bpb avdd sky130_fd_pr__pfet_g5v0d10v5 ad=1.25 pd=5.5 as=1.25 ps=5.5 w=5 l=1