* NGSPICE file created from lpopamp_slice.ext - technology: sky130A

.subckt lpopamp_slice im ip o avdd avss en enb bpa bpb bnb bna xp ypm ypp zpm zpp
+ xn ynm ynp znm znp vsub
X0 znm bpb zpm avdd sky130_fd_pr__pfet_g5v0d10v5 ad=1.25 pd=5.5 as=1.25 ps=5.5 w=5 l=1
X1 a_13000_n800# ip ypp avss sky130_fd_pr__nfet_g5v0d10v5 ad=1.75 pd=7.5 as=1.75 ps=7.5 w=7 l=1
X2 ynm znp a_29800_900# avss sky130_fd_pr__nfet_g5v0d10v5 ad=1.75 pd=7.5 as=1.75 ps=7.5 w=7 l=1
X3 ypm zpp zpm avdd sky130_fd_pr__pfet_g5v0d10v5 ad=1.25 pd=5.5 as=1.25 ps=5.5 w=5 l=1
X4 wn bnb a_23200_n1650# avss sky130_fd_pr__nfet_g5v0d10v5 ad=1.75 pd=7.5 as=1.75 ps=7.5 w=7 l=1
X5 znm bpb zpm avdd sky130_fd_pr__pfet_g5v0d10v5 ad=1.25 pd=5.5 as=1.25 ps=5.5 w=5 l=1
X6 ypp zpp a_22900_3700# avdd sky130_fd_pr__pfet_g5v0d10v5 ad=1.25 pd=5.5 as=1.25 ps=5.5 w=5 l=1
X7 a_28450_5000# bpa a_28300_5000# avdd sky130_fd_pr__pfet_g5v0d10v5 ad=1.25 pd=5.5 as=1.25 ps=5.5 w=5 l=1
X8 a_26350_4350# bpa a_26200_4350# avdd sky130_fd_pr__pfet_g5v0d10v5 ad=1.25 pd=5.5 as=1.25 ps=5.5 w=5 l=1
X9 a_27250_n1650# znp a_27100_n1650# avss sky130_fd_pr__nfet_g5v0d10v5 ad=1.75 pd=7.5 as=1.75 ps=7.5 w=7 l=1
X10 wp bpa a_25000_5000# avdd sky130_fd_pr__pfet_g5v0d10v5 ad=1.25 pd=5.5 as=1.25 ps=5.5 w=5 l=1
X11 avss enb znm avss sky130_fd_pr__nfet_g5v0d10v5 ad=1.75 pd=7.5 as=1.75 ps=7.5 w=7 l=1
X12 a_100_3050# bpa avdd avdd sky130_fd_pr__pfet_g5v0d10v5 ad=1.25 pd=5.5 as=1.25 ps=5.5 w=5 l=1
X13 a_34750_n800# znp a_34600_n800# avss sky130_fd_pr__nfet_g5v0d10v5 ad=1.75 pd=7.5 as=1.75 ps=7.5 w=7 l=1
X14 znm bnb a_33100_50# avss sky130_fd_pr__nfet_g5v0d10v5 ad=1.75 pd=7.5 as=1.75 ps=7.5 w=7 l=1
X15 a_18100_900# znp avss avss sky130_fd_pr__nfet_g5v0d10v5 ad=1.75 pd=7.5 as=1.75 ps=7.5 w=7 l=1
X16 a_4000_n800# en bna avss sky130_fd_pr__nfet_g5v0d10v5 ad=1.75 pd=7.5 as=1.75 ps=7.5 w=7 l=1
X17 znm bnb a_31300_n800# avss sky130_fd_pr__nfet_g5v0d10v5 ad=1.75 pd=7.5 as=1.75 ps=7.5 w=7 l=1
X18 ynm im xp avdd sky130_fd_pr__pfet_g5v0d10v5 ad=1.25 pd=5.5 as=1.25 ps=5.5 w=5 l=1
X19 a_28150_50# znp a_28000_50# avss sky130_fd_pr__nfet_g5v0d10v5 ad=1.75 pd=7.5 as=1.75 ps=7.5 w=7 l=1
X20 zpm bpb znm avdd sky130_fd_pr__pfet_g5v0d10v5 ad=1.25 pd=5.5 as=1.25 ps=5.5 w=5 l=1
X21 a_1150_n1650# bnb a_5800_50# avss sky130_fd_pr__nfet_g5v0d10v5 ad=1.75 pd=7.5 as=1.75 ps=7.5 w=7 l=1
X22 zpm zpp ypm avdd sky130_fd_pr__pfet_g5v0d10v5 ad=1.25 pd=5.5 as=1.25 ps=5.5 w=5 l=1
X23 zpm bpb znm avdd sky130_fd_pr__pfet_g5v0d10v5 ad=1.25 pd=5.5 as=1.25 ps=5.5 w=5 l=1
X24 a_25000_50# znp a_24850_50# avss sky130_fd_pr__nfet_g5v0d10v5 ad=1.75 pd=7.5 as=1.75 ps=7.5 w=7 l=1
X25 a_8200_50# bna a_8050_50# avss sky130_fd_pr__nfet_g5v0d10v5 ad=1.75 pd=7.5 as=1.75 ps=7.5 w=7 l=1
X26 a_28600_5000# bpa a_28450_5000# avdd sky130_fd_pr__pfet_g5v0d10v5 ad=1.25 pd=5.5 as=1.25 ps=5.5 w=5 l=1
X27 a_26500_4350# bpa a_26350_4350# avdd sky130_fd_pr__pfet_g5v0d10v5 ad=1.25 pd=5.5 as=1.25 ps=5.5 w=5 l=1
X28 a_20050_3050# bpa a_19900_3050# avdd sky130_fd_pr__pfet_g5v0d10v5 ad=1.25 pd=5.5 as=1.25 ps=5.5 w=5 l=1
X29 a_13300_n1650# im xn avss sky130_fd_pr__nfet_g5v0d10v5 ad=1.75 pd=7.5 as=1.75 ps=7.5 w=7 l=1
X30 a_25300_5000# bpb wp avdd sky130_fd_pr__pfet_g5v0d10v5 ad=1.25 pd=5.5 as=1.25 ps=5.5 w=5 l=1
X31 a_23200_4350# zpp ypp avdd sky130_fd_pr__pfet_g5v0d10v5 ad=1.25 pd=5.5 as=1.25 ps=5.5 w=5 l=1
X32 a_17200_n1650# znp a_17050_n1650# avss sky130_fd_pr__nfet_g5v0d10v5 ad=1.75 pd=7.5 as=1.75 ps=7.5 w=7 l=1
X33 a_19900_50# znp a_19750_50# avss sky130_fd_pr__nfet_g5v0d10v5 ad=1.75 pd=7.5 as=1.75 ps=7.5 w=7 l=1
X34 xp ip ynp avdd sky130_fd_pr__pfet_g5v0d10v5 ad=1.25 pd=5.5 as=1.25 ps=5.5 w=5 l=1
X35 a_34900_n800# znp a_34750_n800# avss sky130_fd_pr__nfet_g5v0d10v5 ad=1.75 pd=7.5 as=1.75 ps=7.5 w=7 l=1
X36 a_13450_3050# zpp a_13300_3050# avdd sky130_fd_pr__pfet_g5v0d10v5 ad=1.25 pd=5.5 as=1.25 ps=5.5 w=5 l=1
X37 a_8200_3700# bpa a_8050_3700# avdd sky130_fd_pr__pfet_g5v0d10v5 ad=1.25 pd=5.5 as=1.25 ps=5.5 w=5 l=1
X38 a_31600_n800# bnb znm avss sky130_fd_pr__nfet_g5v0d10v5 ad=1.75 pd=7.5 as=1.75 ps=7.5 w=7 l=1
X39 avdd bpa bpa avdd sky130_fd_pr__pfet_g5v0d10v5 ad=1.25 pd=5.5 as=1.25 ps=5.5 w=5 l=1
X40 a_4300_n1650# en a_1150_n1650# avss sky130_fd_pr__nfet_g5v0d10v5 ad=1.75 pd=7.5 as=1.75 ps=7.5 w=7 l=1
X41 a_8200_n1650# bna a_8050_n1650# avss sky130_fd_pr__nfet_g5v0d10v5 ad=1.75 pd=7.5 as=1.75 ps=7.5 w=7 l=1
X42 a_17650_n800# znp a_17500_n800# avss sky130_fd_pr__nfet_g5v0d10v5 ad=1.75 pd=7.5 as=1.75 ps=7.5 w=7 l=1
X43 a_14050_5000# zpp a_13900_5000# avdd sky130_fd_pr__pfet_g5v0d10v5 ad=1.25 pd=5.5 as=1.25 ps=5.5 w=5 l=1
X44 avdd zpp a_11800_4350# avdd sky130_fd_pr__pfet_g5v0d10v5 ad=1.25 pd=5.5 as=1.25 ps=5.5 w=5 l=1
X45 a_550_3050# bpb bpb avdd sky130_fd_pr__pfet_g5v0d10v5 ad=1.25 pd=5.5 as=1.25 ps=5.5 w=5 l=1
X46 xn im a_14200_n800# avss sky130_fd_pr__nfet_g5v0d10v5 ad=1.75 pd=7.5 as=1.75 ps=7.5 w=7 l=1
X47 avdd bpa bpa avdd sky130_fd_pr__pfet_g5v0d10v5 ad=1.25 pd=5.5 as=1.25 ps=5.5 w=5 l=1
X48 bna enb avss avss sky130_fd_pr__nfet_g5v0d10v5 ad=1.75 pd=7.5 as=3.5 ps=15 w=7 l=1
X49 ynm znp a_33400_n1650# avss sky130_fd_pr__nfet_g5v0d10v5 ad=1.75 pd=7.5 as=1.75 ps=7.5 w=7 l=1
X50 a_4450_3050# bpa a_4300_3050# avdd sky130_fd_pr__pfet_g5v0d10v5 ad=1.25 pd=5.5 as=1.25 ps=5.5 w=5 l=1
X51 o znm a_37300_n1650# avss sky130_fd_pr__nfet_g5v0d10v5 ad=1.75 pd=7.5 as=1.75 ps=7.5 w=7 l=1
X52 xn ip a_12400_50# avss sky130_fd_pr__nfet_g5v0d10v5 ad=1.75 pd=7.5 as=1.75 ps=7.5 w=7 l=1
X53 ynm im xp avdd sky130_fd_pr__pfet_g5v0d10v5 ad=1.25 pd=5.5 as=1.25 ps=5.5 w=5 l=1
X54 a_34900_50# znp a_34750_50# avss sky130_fd_pr__nfet_g5v0d10v5 ad=1.75 pd=7.5 as=1.75 ps=7.5 w=7 l=1
X55 a_550_3050# bpb bpb avdd sky130_fd_pr__pfet_g5v0d10v5 ad=1.25 pd=5.5 as=1.25 ps=5.5 w=5 l=1
X56 a_13600_3050# zpp a_13450_3050# avdd sky130_fd_pr__pfet_g5v0d10v5 ad=1.25 pd=5.5 as=1.25 ps=5.5 w=5 l=1
X57 a_20050_n1650# znp a_19900_n1650# avss sky130_fd_pr__nfet_g5v0d10v5 ad=1.75 pd=7.5 as=1.75 ps=7.5 w=7 l=1
X58 a_29800_50# znp a_29650_50# avss sky130_fd_pr__nfet_g5v0d10v5 ad=1.75 pd=7.5 as=1.75 ps=7.5 w=7 l=1
X59 bpa bpa avdd avdd sky130_fd_pr__pfet_g5v0d10v5 ad=1.25 pd=5.5 as=1.25 ps=5.5 w=5 l=1
X60 a_8650_n800# bna a_8500_n800# avss sky130_fd_pr__nfet_g5v0d10v5 ad=1.75 pd=7.5 as=1.75 ps=7.5 w=7 l=1
X61 a_550_3050# bpb a_4900_5000# avdd sky130_fd_pr__pfet_g5v0d10v5 ad=1.25 pd=5.5 as=1.25 ps=5.5 w=5 l=1
X62 a_550_3050# bpb bpb avdd sky130_fd_pr__pfet_g5v0d10v5 ad=1.25 pd=5.5 as=1.25 ps=5.5 w=5 l=1
X63 a_31600_900# bnb znm avss sky130_fd_pr__nfet_g5v0d10v5 ad=1.75 pd=7.5 as=1.75 ps=7.5 w=7 l=1
X64 a_1150_n1650# bnb a_5200_n800# avss sky130_fd_pr__nfet_g5v0d10v5 ad=1.75 pd=7.5 as=1.75 ps=7.5 w=7 l=1
X65 a_550_3050# bpb bpb avdd sky130_fd_pr__pfet_g5v0d10v5 ad=1.25 pd=5.5 as=1.25 ps=5.5 w=5 l=1
X66 a_17800_n800# znp a_17650_n800# avss sky130_fd_pr__nfet_g5v0d10v5 ad=1.75 pd=7.5 as=1.75 ps=7.5 w=7 l=1
X67 a_7900_3050# bpa a_550_3050# avdd sky130_fd_pr__pfet_g5v0d10v5 ad=1.25 pd=5.5 as=1.25 ps=5.5 w=5 l=1
X68 a_27850_3700# bpb znp avdd sky130_fd_pr__pfet_g5v0d10v5 ad=1.25 pd=5.5 as=1.25 ps=5.5 w=5 l=1
X69 a_14500_n800# bna xn avss sky130_fd_pr__nfet_g5v0d10v5 ad=1.75 pd=7.5 as=1.75 ps=7.5 w=7 l=1
X70 avdd zpp a_35200_3050# avdd sky130_fd_pr__pfet_g5v0d10v5 ad=1.25 pd=5.5 as=1.25 ps=5.5 w=5 l=1
X71 a_10900_5000# zpp avdd avdd sky130_fd_pr__pfet_g5v0d10v5 ad=1.25 pd=5.5 as=1.25 ps=5.5 w=5 l=1
X72 a_4600_3050# bpa a_4450_3050# avdd sky130_fd_pr__pfet_g5v0d10v5 ad=1.25 pd=5.5 as=1.25 ps=5.5 w=5 l=1
X73 avdd zpp a_24400_3700# avdd sky130_fd_pr__pfet_g5v0d10v5 ad=1.25 pd=5.5 as=1.25 ps=5.5 w=5 l=1
X74 a_23500_n1650# bna wn avss sky130_fd_pr__nfet_g5v0d10v5 ad=1.75 pd=7.5 as=1.75 ps=7.5 w=7 l=1
X75 a_11200_n800# bna a_11050_n800# avss sky130_fd_pr__nfet_g5v0d10v5 ad=1.75 pd=7.5 as=1.75 ps=7.5 w=7 l=1
X76 xn bna a_11800_900# avss sky130_fd_pr__nfet_g5v0d10v5 ad=1.75 pd=7.5 as=1.75 ps=7.5 w=7 l=1
X77 a_27400_n1650# znp a_27250_n1650# avss sky130_fd_pr__nfet_g5v0d10v5 ad=1.75 pd=7.5 as=1.75 ps=7.5 w=7 l=1
X78 bpb bpb a_550_3050# avdd sky130_fd_pr__pfet_g5v0d10v5 ad=1.25 pd=5.5 as=1.25 ps=5.5 w=5 l=1
X79 a_21250_3700# zpp a_21100_3700# avdd sky130_fd_pr__pfet_g5v0d10v5 ad=1.25 pd=5.5 as=1.25 ps=5.5 w=5 l=1
X80 a_23800_900# bna a_23650_900# avss sky130_fd_pr__nfet_g5v0d10v5 ad=1.75 pd=7.5 as=1.75 ps=7.5 w=7 l=1
X81 avdd zpm o avdd sky130_fd_pr__pfet_g5v0d10v5 ad=1.25 pd=5.5 as=1.25 ps=5.5 w=5 l=1
X82 zpp bnb a_22300_50# avss sky130_fd_pr__nfet_g5v0d10v5 ad=1.75 pd=7.5 as=1.75 ps=7.5 w=7 l=1
X83 znm bpb zpm avdd sky130_fd_pr__pfet_g5v0d10v5 ad=1.25 pd=5.5 as=1.25 ps=5.5 w=5 l=1
X84 a_8800_n800# bna a_8650_n800# avss sky130_fd_pr__nfet_g5v0d10v5 ad=1.75 pd=7.5 as=1.75 ps=7.5 w=7 l=1
X85 a_21250_900# bna a_21100_900# avss sky130_fd_pr__nfet_g5v0d10v5 ad=1.75 pd=7.5 as=1.75 ps=7.5 w=7 l=1
X86 o znm a_36100_n800# avss sky130_fd_pr__nfet_g5v0d10v5 ad=1.75 pd=7.5 as=1.75 ps=7.5 w=7 l=1
X87 a_2500_50# bnb a_1150_n1650# avss sky130_fd_pr__nfet_g5v0d10v5 ad=1.75 pd=7.5 as=1.75 ps=7.5 w=7 l=1
X88 ypm zpp a_32500_5000# avdd sky130_fd_pr__pfet_g5v0d10v5 ad=1.25 pd=5.5 as=1.25 ps=5.5 w=5 l=1
X89 znm bpb zpm avdd sky130_fd_pr__pfet_g5v0d10v5 ad=1.25 pd=5.5 as=1.25 ps=5.5 w=5 l=1
X90 a_17350_50# znp a_17200_50# avss sky130_fd_pr__nfet_g5v0d10v5 ad=1.75 pd=7.5 as=1.75 ps=7.5 w=7 l=1
X91 a_33100_900# bnb zpm avss sky130_fd_pr__nfet_g5v0d10v5 ad=1.75 pd=7.5 as=1.75 ps=7.5 w=7 l=1
X92 a_5500_n800# bnb a_1150_n1650# avss sky130_fd_pr__nfet_g5v0d10v5 ad=1.75 pd=7.5 as=1.75 ps=7.5 w=7 l=1
X93 bpa enb a_550_3050# avdd sky130_fd_pr__pfet_g5v0d10v5 ad=1.25 pd=5.5 as=1.25 ps=5.5 w=5 l=1
X94 a_2200_n800# bnb bnb avss sky130_fd_pr__nfet_g5v0d10v5 ad=1.75 pd=7.5 as=1.75 ps=7.5 w=7 l=1
X95 a_4900_900# bnb a_1150_n1650# avss sky130_fd_pr__nfet_g5v0d10v5 ad=1.75 pd=7.5 as=1.75 ps=7.5 w=7 l=1
X96 o zpm avdd avdd sky130_fd_pr__pfet_g5v0d10v5 ad=1.25 pd=5.5 as=1.25 ps=5.5 w=5 l=1
X97 a_28000_3700# bpb a_27850_3700# avdd sky130_fd_pr__pfet_g5v0d10v5 ad=1.25 pd=5.5 as=1.25 ps=5.5 w=5 l=1
X98 a_100_4350# bpa avdd avdd sky130_fd_pr__pfet_g5v0d10v5 ad=1.25 pd=5.5 as=1.25 ps=5.5 w=5 l=1
X99 a_16000_900# znp a_15850_900# avss sky130_fd_pr__nfet_g5v0d10v5 ad=1.75 pd=7.5 as=1.75 ps=7.5 w=7 l=1
X100 a_1150_n1650# bnb a_2200_900# avss sky130_fd_pr__nfet_g5v0d10v5 ad=1.75 pd=7.5 as=1.75 ps=7.5 w=7 l=1
X101 a_32200_3050# zpp avdd avdd sky130_fd_pr__pfet_g5v0d10v5 ad=1.25 pd=5.5 as=1.25 ps=5.5 w=5 l=1
X102 a_24700_3700# bpa avdd avdd sky130_fd_pr__pfet_g5v0d10v5 ad=1.25 pd=5.5 as=1.25 ps=5.5 w=5 l=1
X103 ypm im a_13300_900# avss sky130_fd_pr__nfet_g5v0d10v5 ad=1.75 pd=7.5 as=1.75 ps=7.5 w=7 l=1
X104 a_25300_900# znp a_25150_900# avss sky130_fd_pr__nfet_g5v0d10v5 ad=1.75 pd=7.5 as=1.75 ps=7.5 w=7 l=1
X105 zpp zpp a_21250_3700# avdd sky130_fd_pr__pfet_g5v0d10v5 ad=1.25 pd=5.5 as=1.25 ps=5.5 w=5 l=1
X106 a_10150_n1650# bna a_10000_n1650# avss sky130_fd_pr__nfet_g5v0d10v5 ad=1.75 pd=7.5 as=1.75 ps=7.5 w=7 l=1
X107 a_18250_3050# bpa a_18100_3050# avdd sky130_fd_pr__pfet_g5v0d10v5 ad=1.25 pd=5.5 as=1.25 ps=5.5 w=5 l=1
X108 zpm bpb znm avdd sky130_fd_pr__pfet_g5v0d10v5 ad=1.25 pd=5.5 as=1.25 ps=5.5 w=5 l=1
X109 zpm zpp ypm avdd sky130_fd_pr__pfet_g5v0d10v5 ad=1.25 pd=5.5 as=1.25 ps=5.5 w=5 l=1
X110 a_36400_n800# znm o avss sky130_fd_pr__nfet_g5v0d10v5 ad=1.75 pd=7.5 as=1.75 ps=7.5 w=7 l=1
X111 bpa en avdd avdd sky130_fd_pr__pfet_g5v0d10v5 ad=1.25 pd=5.5 as=2.5 ps=11 w=5 l=1
X112 zpm bpb znm avdd sky130_fd_pr__pfet_g5v0d10v5 ad=1.25 pd=5.5 as=1.25 ps=5.5 w=5 l=1
X113 zpm bnb a_32200_50# avss sky130_fd_pr__nfet_g5v0d10v5 ad=1.75 pd=7.5 as=1.75 ps=7.5 w=7 l=1
X114 a_33100_n800# bnb zpm avss sky130_fd_pr__nfet_g5v0d10v5 ad=1.75 pd=7.5 as=1.75 ps=7.5 w=7 l=1
X115 a_20050_4350# bpa a_19900_4350# avdd sky130_fd_pr__pfet_g5v0d10v5 ad=1.25 pd=5.5 as=1.25 ps=5.5 w=5 l=1
X116 ypp zpp a_20800_3050# avdd sky130_fd_pr__pfet_g5v0d10v5 ad=1.25 pd=5.5 as=1.25 ps=5.5 w=5 l=1
X117 a_6400_900# bnb bnb avss sky130_fd_pr__nfet_g5v0d10v5 ad=1.75 pd=7.5 as=1.75 ps=7.5 w=7 l=1
X118 xp im ynm avdd sky130_fd_pr__pfet_g5v0d10v5 ad=1.25 pd=5.5 as=1.25 ps=5.5 w=5 l=1
X119 xp ip ynp avdd sky130_fd_pr__pfet_g5v0d10v5 ad=1.25 pd=5.5 as=1.25 ps=5.5 w=5 l=1
X120 a_1150_n1650# bna a_1000_n1650# avss sky130_fd_pr__nfet_g5v0d10v5 ad=1.75 pd=7.5 as=1.75 ps=7.5 w=7 l=1
X121 a_27250_50# znp a_27100_50# avss sky130_fd_pr__nfet_g5v0d10v5 ad=1.75 pd=7.5 as=1.75 ps=7.5 w=7 l=1
X122 a_17500_900# znp a_17350_900# avss sky130_fd_pr__nfet_g5v0d10v5 ad=1.75 pd=7.5 as=1.75 ps=7.5 w=7 l=1
X123 bnb bnb a_4900_50# avss sky130_fd_pr__nfet_g5v0d10v5 ad=1.75 pd=7.5 as=1.75 ps=7.5 w=7 l=1
X124 ynm znp a_19000_n800# avss sky130_fd_pr__nfet_g5v0d10v5 ad=1.75 pd=7.5 as=1.75 ps=7.5 w=7 l=1
X125 avdd zpp a_15400_5000# avdd sky130_fd_pr__pfet_g5v0d10v5 ad=1.25 pd=5.5 as=1.25 ps=5.5 w=5 l=1
X126 a_7300_50# bna a_1150_n1650# avss sky130_fd_pr__nfet_g5v0d10v5 ad=1.75 pd=7.5 as=1.75 ps=7.5 w=7 l=1
X127 a_13450_4350# zpp a_13300_4350# avdd sky130_fd_pr__pfet_g5v0d10v5 ad=1.25 pd=5.5 as=1.25 ps=5.5 w=5 l=1
X128 avdd bpa bpa avdd sky130_fd_pr__pfet_g5v0d10v5 ad=1.25 pd=5.5 as=1.25 ps=5.5 w=5 l=1
X129 a_12250_5000# zpp a_12100_5000# avdd sky130_fd_pr__pfet_g5v0d10v5 ad=1.25 pd=5.5 as=1.25 ps=5.5 w=5 l=1
X130 a_33700_n1650# znp ynm avss sky130_fd_pr__nfet_g5v0d10v5 ad=1.75 pd=7.5 as=1.75 ps=7.5 w=7 l=1
X131 avdd bpa bpa avdd sky130_fd_pr__pfet_g5v0d10v5 ad=1.25 pd=5.5 as=1.25 ps=5.5 w=5 l=1
X132 a_37600_n1650# znm o avss sky130_fd_pr__nfet_g5v0d10v5 ad=1.75 pd=7.5 as=1.75 ps=7.5 w=7 l=1
X133 a_18400_3050# bpa a_18250_3050# avdd sky130_fd_pr__pfet_g5v0d10v5 ad=1.25 pd=5.5 as=1.25 ps=5.5 w=5 l=1
X134 a_21850_n800# bnb a_21700_n800# avss sky130_fd_pr__nfet_g5v0d10v5 ad=1.75 pd=7.5 as=1.75 ps=7.5 w=7 l=1
X135 a_19000_50# znp a_18850_50# avss sky130_fd_pr__nfet_g5v0d10v5 ad=1.75 pd=7.5 as=1.75 ps=7.5 w=7 l=1
X136 a_15100_3050# zpp ypm avdd sky130_fd_pr__pfet_g5v0d10v5 ad=1.25 pd=5.5 as=1.25 ps=5.5 w=5 l=1
X137 avdd bpa bpa avdd sky130_fd_pr__pfet_g5v0d10v5 ad=1.25 pd=5.5 as=1.25 ps=5.5 w=5 l=1
X138 a_550_3050# bpb a_6700_4350# avdd sky130_fd_pr__pfet_g5v0d10v5 ad=1.25 pd=5.5 as=1.25 ps=5.5 w=5 l=1
X139 a_250_n1650# bna a_100_n1650# avss sky130_fd_pr__nfet_g5v0d10v5 ad=1.75 pd=7.5 as=1.75 ps=7.5 w=7 l=1
X140 a_550_3050# enb bpa avdd sky130_fd_pr__pfet_g5v0d10v5 ad=1.25 pd=5.5 as=1.25 ps=5.5 w=5 l=1
X141 ynm im xp avdd sky130_fd_pr__pfet_g5v0d10v5 ad=1.25 pd=5.5 as=1.25 ps=5.5 w=5 l=1
X142 a_4450_4350# bpa a_4300_4350# avdd sky130_fd_pr__pfet_g5v0d10v5 ad=1.25 pd=5.5 as=1.25 ps=5.5 w=5 l=1
X143 ynm im xp avdd sky130_fd_pr__pfet_g5v0d10v5 ad=1.25 pd=5.5 as=1.25 ps=5.5 w=5 l=1
X144 a_550_3050# bpb bpb avdd sky130_fd_pr__pfet_g5v0d10v5 ad=1.25 pd=5.5 as=1.25 ps=5.5 w=5 l=1
X145 a_19300_n800# znp ynm avss sky130_fd_pr__nfet_g5v0d10v5 ad=1.75 pd=7.5 as=1.75 ps=7.5 w=7 l=1
X146 a_15700_5000# bpa avdd avdd sky130_fd_pr__pfet_g5v0d10v5 ad=1.25 pd=5.5 as=1.25 ps=5.5 w=5 l=1
X147 a_550_3050# bpb bpb avdd sky130_fd_pr__pfet_g5v0d10v5 ad=1.25 pd=5.5 as=1.25 ps=5.5 w=5 l=1
X148 a_13600_4350# zpp a_13450_4350# avdd sky130_fd_pr__pfet_g5v0d10v5 ad=1.25 pd=5.5 as=1.25 ps=5.5 w=5 l=1
X149 bpa bpa avdd avdd sky130_fd_pr__pfet_g5v0d10v5 ad=1.25 pd=5.5 as=1.25 ps=5.5 w=5 l=1
X150 ypm zpp a_29200_3700# avdd sky130_fd_pr__pfet_g5v0d10v5 ad=1.25 pd=5.5 as=1.25 ps=5.5 w=5 l=1
X151 avss znm a_37000_50# avss sky130_fd_pr__nfet_g5v0d10v5 ad=1.75 pd=7.5 as=1.75 ps=7.5 w=7 l=1
X152 a_12400_5000# zpp a_12250_5000# avdd sky130_fd_pr__pfet_g5v0d10v5 ad=1.25 pd=5.5 as=1.25 ps=5.5 w=5 l=1
X153 bpa bpa avdd avdd sky130_fd_pr__pfet_g5v0d10v5 ad=1.25 pd=5.5 as=1.25 ps=5.5 w=5 l=1
X154 bpa enb a_550_3050# avdd sky130_fd_pr__pfet_g5v0d10v5 ad=1.25 pd=5.5 as=1.25 ps=5.5 w=5 l=1
X155 a_34000_50# znp znm avss sky130_fd_pr__nfet_g5v0d10v5 ad=1.75 pd=7.5 as=1.75 ps=7.5 w=7 l=1
X156 a_11650_50# bna a_11500_50# avss sky130_fd_pr__nfet_g5v0d10v5 ad=1.75 pd=7.5 as=1.75 ps=7.5 w=7 l=1
X157 a_22000_n800# bnb a_21850_n800# avss sky130_fd_pr__nfet_g5v0d10v5 ad=1.75 pd=7.5 as=1.75 ps=7.5 w=7 l=1
X158 avss znp a_20200_n1650# avss sky130_fd_pr__nfet_g5v0d10v5 ad=1.75 pd=7.5 as=1.75 ps=7.5 w=7 l=1
X159 a_9850_50# bna a_9700_50# avss sky130_fd_pr__nfet_g5v0d10v5 ad=1.75 pd=7.5 as=1.75 ps=7.5 w=7 l=1
X160 avdd zpp a_31900_3700# avdd sky130_fd_pr__pfet_g5v0d10v5 ad=1.25 pd=5.5 as=1.25 ps=5.5 w=5 l=1
X161 bpa bpa avdd avdd sky130_fd_pr__pfet_g5v0d10v5 ad=1.25 pd=5.5 as=1.25 ps=5.5 w=5 l=1
X162 a_24250_n1650# bna a_24100_n1650# avss sky130_fd_pr__nfet_g5v0d10v5 ad=1.75 pd=7.5 as=1.75 ps=7.5 w=7 l=1
X163 avdd zpm o avdd sky130_fd_pr__pfet_g5v0d10v5 ad=1.25 pd=5.5 as=1.25 ps=5.5 w=5 l=1
X164 a_7900_4350# bpa a_550_3050# avdd sky130_fd_pr__pfet_g5v0d10v5 ad=1.25 pd=5.5 as=1.25 ps=5.5 w=5 l=1
X165 a_28900_50# znp avss avss sky130_fd_pr__nfet_g5v0d10v5 ad=1.75 pd=7.5 as=1.75 ps=7.5 w=7 l=1
X166 avdd zpp a_35200_4350# avdd sky130_fd_pr__pfet_g5v0d10v5 ad=1.25 pd=5.5 as=1.25 ps=5.5 w=5 l=1
X167 a_28150_n1650# znp a_28000_n1650# avss sky130_fd_pr__nfet_g5v0d10v5 ad=1.75 pd=7.5 as=1.75 ps=7.5 w=7 l=1
X168 a_6700_5000# bpb a_550_3050# avdd sky130_fd_pr__pfet_g5v0d10v5 ad=1.25 pd=5.5 as=1.25 ps=5.5 w=5 l=1
X169 znm bpb zpm avdd sky130_fd_pr__pfet_g5v0d10v5 ad=1.25 pd=5.5 as=1.25 ps=5.5 w=5 l=1
X170 a_4600_4350# bpa a_4450_4350# avdd sky130_fd_pr__pfet_g5v0d10v5 ad=1.25 pd=5.5 as=1.25 ps=5.5 w=5 l=1
X171 bpb bpb a_550_3050# avdd sky130_fd_pr__pfet_g5v0d10v5 ad=1.25 pd=5.5 as=1.25 ps=5.5 w=5 l=1
X172 bpb bpb a_550_3050# avdd sky130_fd_pr__pfet_g5v0d10v5 ad=1.25 pd=5.5 as=1.25 ps=5.5 w=5 l=1
X173 zpm zpp ypm avdd sky130_fd_pr__pfet_g5v0d10v5 ad=1.25 pd=5.5 as=1.25 ps=5.5 w=5 l=1
X174 a_31000_900# bnb znm avss sky130_fd_pr__nfet_g5v0d10v5 ad=1.75 pd=7.5 as=1.75 ps=7.5 w=7 l=1
X175 a_26200_3700# bpa wp avdd sky130_fd_pr__pfet_g5v0d10v5 ad=1.25 pd=5.5 as=1.25 ps=5.5 w=5 l=1
X176 o zpm avdd avdd sky130_fd_pr__pfet_g5v0d10v5 ad=1.25 pd=5.5 as=1.25 ps=5.5 w=5 l=1
X177 a_10300_n1650# bna a_10150_n1650# avss sky130_fd_pr__nfet_g5v0d10v5 ad=1.75 pd=7.5 as=1.75 ps=7.5 w=7 l=1
X178 wn bna a_21400_50# avss sky130_fd_pr__nfet_g5v0d10v5 ad=1.75 pd=7.5 as=1.75 ps=7.5 w=7 l=1
X179 a_29050_3050# zpp a_28900_3050# avdd sky130_fd_pr__pfet_g5v0d10v5 ad=1.25 pd=5.5 as=1.25 ps=5.5 w=5 l=1
X180 o zpm avdd avdd sky130_fd_pr__pfet_g5v0d10v5 ad=1.25 pd=5.5 as=1.25 ps=5.5 w=5 l=1
X181 a_14200_n1650# im ypm avss sky130_fd_pr__nfet_g5v0d10v5 ad=1.75 pd=7.5 as=1.75 ps=7.5 w=7 l=1
X182 zpm bpb znm avdd sky130_fd_pr__pfet_g5v0d10v5 ad=1.25 pd=5.5 as=1.25 ps=5.5 w=5 l=1
X183 a_1600_50# bnb bnb avss sky130_fd_pr__nfet_g5v0d10v5 ad=1.75 pd=7.5 as=1.75 ps=7.5 w=7 l=1
X184 a_32200_4350# zpp avdd avdd sky130_fd_pr__pfet_g5v0d10v5 ad=1.25 pd=5.5 as=1.25 ps=5.5 w=5 l=1
X185 a_18100_n1650# znp avss avss sky130_fd_pr__nfet_g5v0d10v5 ad=1.75 pd=7.5 as=1.75 ps=7.5 w=7 l=1
X186 a_25750_3050# bpb znp avdd sky130_fd_pr__pfet_g5v0d10v5 ad=1.25 pd=5.5 as=1.25 ps=5.5 w=5 l=1
X187 a_16450_50# znp a_16300_50# avss sky130_fd_pr__nfet_g5v0d10v5 ad=1.75 pd=7.5 as=1.75 ps=7.5 w=7 l=1
X188 a_20650_900# bna a_20500_900# avss sky130_fd_pr__nfet_g5v0d10v5 ad=1.75 pd=7.5 as=1.75 ps=7.5 w=7 l=1
X189 avdd zpp a_22300_3050# avdd sky130_fd_pr__pfet_g5v0d10v5 ad=1.25 pd=5.5 as=1.25 ps=5.5 w=5 l=1
X190 ypm zpp a_14800_3700# avdd sky130_fd_pr__pfet_g5v0d10v5 ad=1.25 pd=5.5 as=1.25 ps=5.5 w=5 l=1
X191 a_32500_900# bnb zpm avss sky130_fd_pr__nfet_g5v0d10v5 ad=1.75 pd=7.5 as=1.75 ps=7.5 w=7 l=1
X192 a_18250_4350# bpa a_18100_4350# avdd sky130_fd_pr__pfet_g5v0d10v5 ad=1.25 pd=5.5 as=1.25 ps=5.5 w=5 l=1
X193 a_1300_n1650# bnb a_1150_n1650# avss sky130_fd_pr__nfet_g5v0d10v5 ad=1.75 pd=7.5 as=1.75 ps=7.5 w=7 l=1
X194 a_11650_3700# zpp a_11500_3700# avdd sky130_fd_pr__pfet_g5v0d10v5 ad=1.25 pd=5.5 as=1.25 ps=5.5 w=5 l=1
X195 a_5200_n1650# bnb bnb avss sky130_fd_pr__nfet_g5v0d10v5 ad=1.75 pd=7.5 as=1.75 ps=7.5 w=7 l=1
X196 ynm znp a_29800_n800# avss sky130_fd_pr__nfet_g5v0d10v5 ad=1.75 pd=7.5 as=1.75 ps=7.5 w=7 l=1
X197 a_9100_n1650# bna a_8950_n1650# avss sky130_fd_pr__nfet_g5v0d10v5 ad=1.75 pd=7.5 as=1.75 ps=7.5 w=7 l=1
X198 znp znp a_26500_n800# avss sky130_fd_pr__nfet_g5v0d10v5 ad=1.75 pd=7.5 as=1.75 ps=7.5 w=7 l=1
X199 ypp zpp a_22900_5000# avdd sky130_fd_pr__pfet_g5v0d10v5 ad=1.25 pd=5.5 as=1.25 ps=5.5 w=5 l=1
X200 ynm znp a_30400_n1650# avss sky130_fd_pr__nfet_g5v0d10v5 ad=1.75 pd=7.5 as=1.75 ps=7.5 w=7 l=1
X201 a_1150_n1650# bnb a_1600_900# avss sky130_fd_pr__nfet_g5v0d10v5 ad=1.75 pd=7.5 as=1.75 ps=7.5 w=7 l=1
X202 ypp zpp a_20800_4350# avdd sky130_fd_pr__pfet_g5v0d10v5 ad=1.25 pd=5.5 as=1.25 ps=5.5 w=5 l=1
X203 wn bnb a_23200_n800# avss sky130_fd_pr__nfet_g5v0d10v5 ad=1.75 pd=7.5 as=1.75 ps=7.5 w=7 l=1
X204 ypp ip a_12700_900# avss sky130_fd_pr__nfet_g5v0d10v5 ad=1.75 pd=7.5 as=1.75 ps=7.5 w=7 l=1
X205 a_34450_n1650# znp a_34300_n1650# avss sky130_fd_pr__nfet_g5v0d10v5 ad=1.75 pd=7.5 as=1.75 ps=7.5 w=7 l=1
X206 a_550_3050# bpb bpb avdd sky130_fd_pr__pfet_g5v0d10v5 ad=1.25 pd=5.5 as=1.25 ps=5.5 w=5 l=1
X207 a_24700_900# znp avss avss sky130_fd_pr__nfet_g5v0d10v5 ad=1.75 pd=7.5 as=1.75 ps=7.5 w=7 l=1
X208 avss enb znm avss sky130_fd_pr__nfet_g5v0d10v5 ad=3.5 pd=15 as=1.75 ps=7.5 w=7 l=1
X209 a_25900_3050# bpb a_25750_3050# avdd sky130_fd_pr__pfet_g5v0d10v5 ad=1.25 pd=5.5 as=1.25 ps=5.5 w=5 l=1
X210 avdd bpa bpa avdd sky130_fd_pr__pfet_g5v0d10v5 ad=1.25 pd=5.5 as=1.25 ps=5.5 w=5 l=1
X211 a_400_n1650# bna a_250_n1650# avss sky130_fd_pr__nfet_g5v0d10v5 ad=1.75 pd=7.5 as=1.75 ps=7.5 w=7 l=1
X212 znm bnb a_31300_50# avss sky130_fd_pr__nfet_g5v0d10v5 ad=1.75 pd=7.5 as=1.75 ps=7.5 w=7 l=1
X213 a_550_3050# bpb bpb avdd sky130_fd_pr__pfet_g5v0d10v5 ad=1.25 pd=5.5 as=1.25 ps=5.5 w=5 l=1
X214 a_17050_n1650# znp a_16900_n1650# avss sky130_fd_pr__nfet_g5v0d10v5 ad=1.75 pd=7.5 as=1.75 ps=7.5 w=7 l=1
X215 a_250_n800# bna a_100_n800# avss sky130_fd_pr__nfet_g5v0d10v5 ad=1.75 pd=7.5 as=1.75 ps=7.5 w=7 l=1
X216 a_22150_900# bnb a_22000_900# avss sky130_fd_pr__nfet_g5v0d10v5 ad=1.75 pd=7.5 as=1.75 ps=7.5 w=7 l=1
X217 a_22600_3050# zpp avdd avdd sky130_fd_pr__pfet_g5v0d10v5 ad=1.25 pd=5.5 as=1.25 ps=5.5 w=5 l=1
X218 avss enb znm avss sky130_fd_pr__nfet_g5v0d10v5 ad=1.75 pd=7.5 as=1.75 ps=7.5 w=7 l=1
X219 a_18400_4350# bpa a_18250_4350# avdd sky130_fd_pr__pfet_g5v0d10v5 ad=1.25 pd=5.5 as=1.25 ps=5.5 w=5 l=1
X220 a_26350_50# znp a_26200_50# avss sky130_fd_pr__nfet_g5v0d10v5 ad=1.75 pd=7.5 as=1.75 ps=7.5 w=7 l=1
X221 a_11800_3700# zpp a_11650_3700# avdd sky130_fd_pr__pfet_g5v0d10v5 ad=1.25 pd=5.5 as=1.25 ps=5.5 w=5 l=1
X222 ynm im xp avdd sky130_fd_pr__pfet_g5v0d10v5 ad=1.25 pd=5.5 as=1.25 ps=5.5 w=5 l=1
X223 a_15100_4350# zpp ypm avdd sky130_fd_pr__pfet_g5v0d10v5 ad=1.25 pd=5.5 as=1.25 ps=5.5 w=5 l=1
X224 a_6400_50# bnb bnb avss sky130_fd_pr__nfet_g5v0d10v5 ad=1.75 pd=7.5 as=1.75 ps=7.5 w=7 l=1
X225 a_5800_900# bnb bnb avss sky130_fd_pr__nfet_g5v0d10v5 ad=1.75 pd=7.5 as=1.75 ps=7.5 w=7 l=1
X226 a_16900_900# znp ynp avss sky130_fd_pr__nfet_g5v0d10v5 ad=1.75 pd=7.5 as=1.75 ps=7.5 w=7 l=1
X227 a_26800_n800# znp znp avss sky130_fd_pr__nfet_g5v0d10v5 ad=1.75 pd=7.5 as=1.75 ps=7.5 w=7 l=1
X228 a_8050_n1650# bna a_7900_n1650# avss sky130_fd_pr__nfet_g5v0d10v5 ad=1.75 pd=7.5 as=1.75 ps=7.5 w=7 l=1
X229 bnb bnb a_3100_900# avss sky130_fd_pr__nfet_g5v0d10v5 ad=1.75 pd=7.5 as=1.75 ps=7.5 w=7 l=1
X230 xn im a_14200_900# avss sky130_fd_pr__nfet_g5v0d10v5 ad=1.75 pd=7.5 as=1.75 ps=7.5 w=7 l=1
X231 avdd zpm o avdd sky130_fd_pr__pfet_g5v0d10v5 ad=1.25 pd=5.5 as=1.25 ps=5.5 w=5 l=1
X232 a_23500_n800# bna wn avss sky130_fd_pr__nfet_g5v0d10v5 ad=1.75 pd=7.5 as=1.75 ps=7.5 w=7 l=1
X233 a_20500_n1650# bna avss avss sky130_fd_pr__nfet_g5v0d10v5 ad=1.75 pd=7.5 as=1.75 ps=7.5 w=7 l=1
X234 a_26200_900# znp a_26050_900# avss sky130_fd_pr__nfet_g5v0d10v5 ad=1.75 pd=7.5 as=1.75 ps=7.5 w=7 l=1
X235 a_20200_n800# znp a_20050_n800# avss sky130_fd_pr__nfet_g5v0d10v5 ad=1.75 pd=7.5 as=1.75 ps=7.5 w=7 l=1
X236 a_24400_n1650# bna a_24250_n1650# avss sky130_fd_pr__nfet_g5v0d10v5 ad=1.75 pd=7.5 as=1.75 ps=7.5 w=7 l=1
X237 znm bpb zpm avdd sky130_fd_pr__pfet_g5v0d10v5 ad=1.25 pd=5.5 as=1.25 ps=5.5 w=5 l=1
X238 bpa bpa avdd avdd sky130_fd_pr__pfet_g5v0d10v5 ad=1.25 pd=5.5 as=1.25 ps=5.5 w=5 l=1
X239 bpb bpb a_550_3050# avdd sky130_fd_pr__pfet_g5v0d10v5 ad=1.25 pd=5.5 as=1.25 ps=5.5 w=5 l=1
X240 a_28300_n1650# znp a_28150_n1650# avss sky130_fd_pr__nfet_g5v0d10v5 ad=1.75 pd=7.5 as=1.75 ps=7.5 w=7 l=1
X241 a_400_n800# bna a_250_n800# avss sky130_fd_pr__nfet_g5v0d10v5 ad=1.75 pd=7.5 as=1.75 ps=7.5 w=7 l=1
X242 znm bpb zpm avdd sky130_fd_pr__pfet_g5v0d10v5 ad=1.25 pd=5.5 as=1.25 ps=5.5 w=5 l=1
X243 a_8200_5000# bpa a_8050_5000# avdd sky130_fd_pr__pfet_g5v0d10v5 ad=1.25 pd=5.5 as=1.25 ps=5.5 w=5 l=1
X244 bpa enb a_550_3050# avdd sky130_fd_pr__pfet_g5v0d10v5 ad=1.25 pd=5.5 as=1.25 ps=5.5 w=5 l=1
X245 a_7300_900# bna a_1150_n1650# avss sky130_fd_pr__nfet_g5v0d10v5 ad=1.75 pd=7.5 as=1.75 ps=7.5 w=7 l=1
X246 o znm a_36100_50# avss sky130_fd_pr__nfet_g5v0d10v5 ad=1.75 pd=7.5 as=1.75 ps=7.5 w=7 l=1
X247 a_18400_900# znp a_18250_900# avss sky130_fd_pr__nfet_g5v0d10v5 ad=1.75 pd=7.5 as=1.75 ps=7.5 w=7 l=1
X248 o zpm avdd avdd sky130_fd_pr__pfet_g5v0d10v5 ad=1.25 pd=5.5 as=1.25 ps=5.5 w=5 l=1
X249 avss bna a_10600_50# avss sky130_fd_pr__nfet_g5v0d10v5 ad=1.75 pd=7.5 as=1.75 ps=7.5 w=7 l=1
X250 a_8950_50# bna a_8800_50# avss sky130_fd_pr__nfet_g5v0d10v5 ad=1.75 pd=7.5 as=1.75 ps=7.5 w=7 l=1
X251 zpm bpb znm avdd sky130_fd_pr__pfet_g5v0d10v5 ad=1.25 pd=5.5 as=1.25 ps=5.5 w=5 l=1
X252 a_28000_50# znp a_27850_50# avss sky130_fd_pr__nfet_g5v0d10v5 ad=1.75 pd=7.5 as=1.75 ps=7.5 w=7 l=1
X253 zpm bpb znm avdd sky130_fd_pr__pfet_g5v0d10v5 ad=1.25 pd=5.5 as=1.25 ps=5.5 w=5 l=1
X254 xp ip ynp avdd sky130_fd_pr__pfet_g5v0d10v5 ad=1.25 pd=5.5 as=1.25 ps=5.5 w=5 l=1
X255 wp bpa a_27100_3050# avdd sky130_fd_pr__pfet_g5v0d10v5 ad=1.25 pd=5.5 as=1.25 ps=5.5 w=5 l=1
X256 xp ip ynp avdd sky130_fd_pr__pfet_g5v0d10v5 ad=1.25 pd=5.5 as=1.25 ps=5.5 w=5 l=1
X257 avdd zpp a_13000_3700# avdd sky130_fd_pr__pfet_g5v0d10v5 ad=1.25 pd=5.5 as=1.25 ps=5.5 w=5 l=1
X258 a_29050_4350# zpp a_28900_4350# avdd sky130_fd_pr__pfet_g5v0d10v5 ad=1.25 pd=5.5 as=1.25 ps=5.5 w=5 l=1
X259 a_27850_5000# bpb znp avdd sky130_fd_pr__pfet_g5v0d10v5 ad=1.25 pd=5.5 as=1.25 ps=5.5 w=5 l=1
X260 a_25750_4350# bpb znp avdd sky130_fd_pr__pfet_g5v0d10v5 ad=1.25 pd=5.5 as=1.25 ps=5.5 w=5 l=1
X261 a_28150_n800# znp a_28000_n800# avss sky130_fd_pr__nfet_g5v0d10v5 ad=1.75 pd=7.5 as=1.75 ps=7.5 w=7 l=1
X262 avdd zpp a_24400_5000# avdd sky130_fd_pr__pfet_g5v0d10v5 ad=1.25 pd=5.5 as=1.25 ps=5.5 w=5 l=1
X263 avdd zpp a_22300_4350# avdd sky130_fd_pr__pfet_g5v0d10v5 ad=1.25 pd=5.5 as=1.25 ps=5.5 w=5 l=1
X264 a_30700_n1650# znp ynm avss sky130_fd_pr__nfet_g5v0d10v5 ad=1.75 pd=7.5 as=1.75 ps=7.5 w=7 l=1
X265 a_850_50# bna a_700_50# avss sky130_fd_pr__nfet_g5v0d10v5 ad=1.75 pd=7.5 as=1.75 ps=7.5 w=7 l=1
X266 a_20650_50# bna a_20500_50# avss sky130_fd_pr__nfet_g5v0d10v5 ad=1.75 pd=7.5 as=1.75 ps=7.5 w=7 l=1
X267 a_21250_5000# zpp a_21100_5000# avdd sky130_fd_pr__pfet_g5v0d10v5 ad=1.25 pd=5.5 as=1.25 ps=5.5 w=5 l=1
X268 a_34600_n1650# znp a_34450_n1650# avss sky130_fd_pr__nfet_g5v0d10v5 ad=1.75 pd=7.5 as=1.75 ps=7.5 w=7 l=1
X269 a_550_3050# bpb bpb avdd sky130_fd_pr__pfet_g5v0d10v5 ad=1.25 pd=5.5 as=1.25 ps=5.5 w=5 l=1
X270 a_27400_3050# bpb wp avdd sky130_fd_pr__pfet_g5v0d10v5 ad=1.25 pd=5.5 as=1.25 ps=5.5 w=5 l=1
X271 a_19900_3700# bpa xp avdd sky130_fd_pr__pfet_g5v0d10v5 ad=1.25 pd=5.5 as=1.25 ps=5.5 w=5 l=1
X272 znm znp a_30700_n800# avss sky130_fd_pr__nfet_g5v0d10v5 ad=1.75 pd=7.5 as=1.75 ps=7.5 w=7 l=1
X273 znm enb avss avss sky130_fd_pr__nfet_g5v0d10v5 ad=1.75 pd=7.5 as=1.75 ps=7.5 w=7 l=1
X274 avss bna a_15400_50# avss sky130_fd_pr__nfet_g5v0d10v5 ad=1.75 pd=7.5 as=1.75 ps=7.5 w=7 l=1
X275 avdd bpa a_4000_3700# avdd sky130_fd_pr__pfet_g5v0d10v5 ad=1.25 pd=5.5 as=1.25 ps=5.5 w=5 l=1
X276 a_24100_3050# zpp ypp avdd sky130_fd_pr__pfet_g5v0d10v5 ad=1.25 pd=5.5 as=1.25 ps=5.5 w=5 l=1
X277 ynp ip xp avdd sky130_fd_pr__pfet_g5v0d10v5 ad=1.25 pd=5.5 as=1.25 ps=5.5 w=5 l=1
X278 a_13300_3700# zpp avdd avdd sky130_fd_pr__pfet_g5v0d10v5 ad=1.25 pd=5.5 as=1.25 ps=5.5 w=5 l=1
X279 a_28000_5000# bpb a_27850_5000# avdd sky130_fd_pr__pfet_g5v0d10v5 ad=1.25 pd=5.5 as=1.25 ps=5.5 w=5 l=1
X280 a_25900_4350# bpb a_25750_4350# avdd sky130_fd_pr__pfet_g5v0d10v5 ad=1.25 pd=5.5 as=1.25 ps=5.5 w=5 l=1
X281 a_31900_900# bnb zpm avss sky130_fd_pr__nfet_g5v0d10v5 ad=1.75 pd=7.5 as=1.75 ps=7.5 w=7 l=1
X282 a_24700_5000# bpa avdd avdd sky130_fd_pr__pfet_g5v0d10v5 ad=1.25 pd=5.5 as=1.25 ps=5.5 w=5 l=1
X283 a_28300_n800# znp a_28150_n800# avss sky130_fd_pr__nfet_g5v0d10v5 ad=1.75 pd=7.5 as=1.75 ps=7.5 w=7 l=1
X284 a_22600_4350# zpp avdd avdd sky130_fd_pr__pfet_g5v0d10v5 ad=1.25 pd=5.5 as=1.25 ps=5.5 w=5 l=1
X285 avdd en zpm avdd sky130_fd_pr__pfet_g5v0d10v5 ad=2.5 pd=11 as=1.25 ps=5.5 w=5 l=1
X286 zpp zpp a_21250_5000# avdd sky130_fd_pr__pfet_g5v0d10v5 ad=1.25 pd=5.5 as=1.25 ps=5.5 w=5 l=1
X287 a_12850_3050# zpp a_12700_3050# avdd sky130_fd_pr__pfet_g5v0d10v5 ad=1.25 pd=5.5 as=1.25 ps=5.5 w=5 l=1
X288 bpb bpb a_550_3050# avdd sky130_fd_pr__pfet_g5v0d10v5 ad=1.25 pd=5.5 as=1.25 ps=5.5 w=5 l=1
X289 a_31000_n800# bnb znm avss sky130_fd_pr__nfet_g5v0d10v5 ad=1.75 pd=7.5 as=1.75 ps=7.5 w=7 l=1
X290 ynm znp a_30400_50# avss sky130_fd_pr__nfet_g5v0d10v5 ad=1.75 pd=7.5 as=1.75 ps=7.5 w=7 l=1
X291 a_4300_3700# bpa avdd avdd sky130_fd_pr__pfet_g5v0d10v5 ad=1.25 pd=5.5 as=1.25 ps=5.5 w=5 l=1
X292 a_21250_n1650# bna a_21100_n1650# avss sky130_fd_pr__nfet_g5v0d10v5 ad=1.75 pd=7.5 as=1.75 ps=7.5 w=7 l=1
X293 bpa en avdd avdd sky130_fd_pr__pfet_g5v0d10v5 ad=1.25 pd=5.5 as=2.5 ps=11 w=5 l=1
X294 a_25150_n1650# znp a_25000_n1650# avss sky130_fd_pr__nfet_g5v0d10v5 ad=1.75 pd=7.5 as=1.75 ps=7.5 w=7 l=1
X295 a_25450_50# znp a_25300_50# avss sky130_fd_pr__nfet_g5v0d10v5 ad=1.75 pd=7.5 as=1.75 ps=7.5 w=7 l=1
X296 a_17050_n800# znp a_16900_n800# avss sky130_fd_pr__nfet_g5v0d10v5 ad=1.75 pd=7.5 as=1.75 ps=7.5 w=7 l=1
X297 wn bna a_21400_900# avss sky130_fd_pr__nfet_g5v0d10v5 ad=1.75 pd=7.5 as=1.75 ps=7.5 w=7 l=1
X298 xn im a_13600_n800# avss sky130_fd_pr__nfet_g5v0d10v5 ad=1.75 pd=7.5 as=1.75 ps=7.5 w=7 l=1