* NGSPICE file created from lpopamp_slice.ext - technology: sky130A

.subckt lpopamp_slice im ip o avdd avss en enb bpa bpb bnb bna xp ypm ypp zpm zpp
+ xn ynm ynp znm znp vsub
X0 a_38000_1800# znp a_37700_1800# avss sky130_fd_pr__nfet_g5v0d10v5 ad=1.75 pd=7.5 as=1.75 ps=7.5 w=7 l=1
X1 o znm a_71000_n3300# avss sky130_fd_pr__nfet_g5v0d10v5 ad=1.75 pd=7.5 as=1.75 ps=7.5 w=7 l=1
X2 a_1100_6100# bpb bpb avdd sky130_fd_pr__pfet_g5v0d10v5 ad=1.25 pd=5.5 as=1.25 ps=5.5 w=5 l=1
X3 a_75200_n3300# znm o avss sky130_fd_pr__nfet_g5v0d10v5 ad=1.75 pd=7.5 as=1.75 ps=7.5 w=7 l=1
X4 a_34700_1800# znp a_34400_1800# avss sky130_fd_pr__nfet_g5v0d10v5 ad=1.75 pd=7.5 as=1.75 ps=7.5 w=7 l=1
X5 a_53900_n3300# znp a_53600_n3300# avss sky130_fd_pr__nfet_g5v0d10v5 ad=1.75 pd=7.5 as=1.75 ps=7.5 w=7 l=1
X6 o znm a_73400_1800# avss sky130_fd_pr__nfet_g5v0d10v5 ad=1.75 pd=7.5 as=1.75 ps=7.5 w=7 l=1
X7 bpa enb a_1100_6100# avdd sky130_fd_pr__pfet_g5v0d10v5 ad=1.25 pd=5.5 as=1.25 ps=5.5 w=5 l=1
X8 ypp zpp a_45800_8700# avdd sky130_fd_pr__pfet_g5v0d10v5 ad=1.25 pd=5.5 as=1.25 ps=5.5 w=5 l=1
X9 a_31400_1800# znp avss avss sky130_fd_pr__nfet_g5v0d10v5 ad=1.75 pd=7.5 as=1.75 ps=7.5 w=7 l=1
X10 a_57800_n3300# znp avss avss sky130_fd_pr__nfet_g5v0d10v5 ad=1.75 pd=7.5 as=1.75 ps=7.5 w=7 l=1
X11 a_70400_1800# znp a_70100_1800# avss sky130_fd_pr__nfet_g5v0d10v5 ad=1.75 pd=7.5 as=1.75 ps=7.5 w=7 l=1
X12 zpp zpp a_42500_8700# avdd sky130_fd_pr__pfet_g5v0d10v5 ad=1.25 pd=5.5 as=1.25 ps=5.5 w=5 l=1
X13 a_20300_n3300# bna a_20000_n3300# avss sky130_fd_pr__nfet_g5v0d10v5 ad=1.75 pd=7.5 as=1.75 ps=7.5 w=7 l=1
X14 a_24200_n3300# im xn avss sky130_fd_pr__nfet_g5v0d10v5 ad=1.75 pd=7.5 as=1.75 ps=7.5 w=7 l=1
X15 ynm ip xp avdd sky130_fd_pr__pfet_g5v0d10v5 ad=1.25 pd=5.5 as=1.25 ps=5.5 w=5 l=1
X16 a_73400_n1600# znm avss avss sky130_fd_pr__nfet_g5v0d10v5 ad=1.75 pd=7.5 as=1.75 ps=7.5 w=7 l=1
X17 xp ip ynm avdd sky130_fd_pr__pfet_g5v0d10v5 ad=1.25 pd=5.5 as=1.25 ps=5.5 w=5 l=1
X18 a_52100_n1600# znp a_51800_n1600# avss sky130_fd_pr__nfet_g5v0d10v5 ad=1.75 pd=7.5 as=1.75 ps=7.5 w=7 l=1
X19 a_56000_n1600# znp a_55700_n1600# avss sky130_fd_pr__nfet_g5v0d10v5 ad=1.75 pd=7.5 as=1.75 ps=7.5 w=7 l=1
X20 avdd zpm o avdd sky130_fd_pr__pfet_g5v0d10v5 ad=1.25 pd=5.5 as=1.25 ps=5.5 w=5 l=1
X21 a_31400_6100# bpa avdd avdd sky130_fd_pr__pfet_g5v0d10v5 ad=1.25 pd=5.5 as=1.25 ps=5.5 w=5 l=1
X22 a_63200_10000# zpp ypm avdd sky130_fd_pr__pfet_g5v0d10v5 ad=1.25 pd=5.5 as=1.25 ps=5.5 w=5 l=1
X23 ynm znp a_59600_n1600# avss sky130_fd_pr__nfet_g5v0d10v5 ad=1.75 pd=7.5 as=1.75 ps=7.5 w=7 l=1
X24 ypm zpp zpm avdd sky130_fd_pr__pfet_g5v0d10v5 ad=1.25 pd=5.5 as=1.25 ps=5.5 w=5 l=1
X25 a_70400_6100# zpp a_70100_6100# avdd sky130_fd_pr__pfet_g5v0d10v5 ad=1.25 pd=5.5 as=1.25 ps=5.5 w=5 l=1
X26 a_27200_7400# zpp a_26900_7400# avdd sky130_fd_pr__pfet_g5v0d10v5 ad=1.25 pd=5.5 as=1.25 ps=5.5 w=5 l=1
X27 ypp zpp a_41600_10000# avdd sky130_fd_pr__pfet_g5v0d10v5 ad=1.25 pd=5.5 as=1.25 ps=5.5 w=5 l=1
X28 a_22400_n1600# bna a_22100_n1600# avss sky130_fd_pr__nfet_g5v0d10v5 ad=1.75 pd=7.5 as=1.75 ps=7.5 w=7 l=1
X29 ynm znp a_59600_1800# avss sky130_fd_pr__nfet_g5v0d10v5 ad=1.75 pd=7.5 as=1.75 ps=7.5 w=7 l=1
X30 zpm zpp ypm avdd sky130_fd_pr__pfet_g5v0d10v5 ad=1.25 pd=5.5 as=1.25 ps=5.5 w=5 l=1
X31 a_45800_10000# zpp a_45500_10000# avdd sky130_fd_pr__pfet_g5v0d10v5 ad=1.25 pd=5.5 as=1.25 ps=5.5 w=5 l=1
X32 xn im a_26000_n1600# avss sky130_fd_pr__nfet_g5v0d10v5 ad=1.75 pd=7.5 as=1.75 ps=7.5 w=7 l=1
X33 a_17600_1800# bna a_17300_1800# avss sky130_fd_pr__nfet_g5v0d10v5 ad=1.75 pd=7.5 as=1.75 ps=7.5 w=7 l=1
X34 a_49700_10000# bpa a_49400_10000# avdd sky130_fd_pr__pfet_g5v0d10v5 ad=1.25 pd=5.5 as=1.25 ps=5.5 w=5 l=1
X35 a_56600_1800# znp a_56300_1800# avss sky130_fd_pr__nfet_g5v0d10v5 ad=1.75 pd=7.5 as=1.75 ps=7.5 w=7 l=1
X36 a_29000_8700# zpp avdd avdd sky130_fd_pr__pfet_g5v0d10v5 ad=1.25 pd=5.5 as=1.25 ps=5.5 w=5 l=1
X37 a_2300_n3300# bnb a_14000_1800# avss sky130_fd_pr__nfet_g5v0d10v5 ad=1.75 pd=7.5 as=1.75 ps=7.5 w=7 l=1
X38 bpa enb a_1100_6100# avdd sky130_fd_pr__pfet_g5v0d10v5 ad=1.25 pd=5.5 as=1.25 ps=5.5 w=5 l=1
X39 a_51800_100# znp ynp avss sky130_fd_pr__nfet_g5v0d10v5 ad=1.75 pd=7.5 as=1.75 ps=7.5 w=7 l=1
X40 zpm bpb znm avdd sky130_fd_pr__pfet_g5v0d10v5 ad=1.25 pd=5.5 as=1.25 ps=5.5 w=5 l=1
X41 znp znp a_53000_1800# avss sky130_fd_pr__nfet_g5v0d10v5 ad=1.75 pd=7.5 as=1.75 ps=7.5 w=7 l=1
X42 a_25700_8700# zpp a_25400_8700# avdd sky130_fd_pr__pfet_g5v0d10v5 ad=1.25 pd=5.5 as=1.25 ps=5.5 w=5 l=1
X43 a_64700_8700# zpp a_64400_8700# avdd sky130_fd_pr__pfet_g5v0d10v5 ad=1.25 pd=5.5 as=1.25 ps=5.5 w=5 l=1
X44 a_22400_8700# zpp a_22100_8700# avdd sky130_fd_pr__pfet_g5v0d10v5 ad=1.25 pd=5.5 as=1.25 ps=5.5 w=5 l=1
X45 zpm bpb znm avdd sky130_fd_pr__pfet_g5v0d10v5 ad=1.25 pd=5.5 as=1.25 ps=5.5 w=5 l=1
X46 a_8600_1800# en a_2300_n3300# avss sky130_fd_pr__nfet_g5v0d10v5 ad=1.75 pd=7.5 as=1.75 ps=7.5 w=7 l=1
X47 bpb bpb a_1100_6100# avdd sky130_fd_pr__pfet_g5v0d10v5 ad=1.25 pd=5.5 as=1.25 ps=5.5 w=5 l=1
X48 znm bnb a_63800_n3300# avss sky130_fd_pr__nfet_g5v0d10v5 ad=1.75 pd=7.5 as=1.75 ps=7.5 w=7 l=1
X49 a_68000_n3300# znp znm avss sky130_fd_pr__nfet_g5v0d10v5 ad=1.75 pd=7.5 as=1.75 ps=7.5 w=7 l=1
X50 a_44000_100# bnb a_43700_100# avss sky130_fd_pr__nfet_g5v0d10v5 ad=1.75 pd=7.5 as=1.75 ps=7.5 w=7 l=1
X51 znm bpb zpm avdd sky130_fd_pr__pfet_g5v0d10v5 ad=1.25 pd=5.5 as=1.25 ps=5.5 w=5 l=1
X52 bnb bnb a_5000_1800# avss sky130_fd_pr__nfet_g5v0d10v5 ad=1.75 pd=7.5 as=1.75 ps=7.5 w=7 l=1
X53 a_17600_6100# bpa avdd avdd sky130_fd_pr__pfet_g5v0d10v5 ad=1.25 pd=5.5 as=1.25 ps=5.5 w=5 l=1
X54 a_200_n3300# bna avss avss sky130_fd_pr__nfet_g5v0d10v5 ad=1.75 pd=7.5 as=1.75 ps=7.5 w=7 l=1
X55 a_30500_n3300# bna a_30200_n3300# avss sky130_fd_pr__nfet_g5v0d10v5 ad=1.75 pd=7.5 as=1.75 ps=7.5 w=7 l=1
X56 a_11000_100# bnb a_2300_n3300# avss sky130_fd_pr__nfet_g5v0d10v5 ad=1.75 pd=7.5 as=1.75 ps=7.5 w=7 l=1
X57 a_56600_6100# bpa wp avdd sky130_fd_pr__pfet_g5v0d10v5 ad=1.25 pd=5.5 as=1.25 ps=5.5 w=5 l=1
X58 a_34400_n3300# znp a_34100_n3300# avss sky130_fd_pr__nfet_g5v0d10v5 ad=1.75 pd=7.5 as=1.75 ps=7.5 w=7 l=1
X59 a_1100_6100# bpb bpb avdd sky130_fd_pr__pfet_g5v0d10v5 ad=1.25 pd=5.5 as=1.25 ps=5.5 w=5 l=1
X60 znp znp a_53000_100# avss sky130_fd_pr__nfet_g5v0d10v5 ad=1.75 pd=7.5 as=1.75 ps=7.5 w=7 l=1
X61 avdd bpa a_53000_6100# avdd sky130_fd_pr__pfet_g5v0d10v5 ad=1.25 pd=5.5 as=1.25 ps=5.5 w=5 l=1
X62 a_2300_n3300# bnb a_12800_n3300# avss sky130_fd_pr__nfet_g5v0d10v5 ad=1.75 pd=7.5 as=1.75 ps=7.5 w=7 l=1
X63 ynm znp a_38000_n3300# avss sky130_fd_pr__nfet_g5v0d10v5 ad=1.75 pd=7.5 as=1.75 ps=7.5 w=7 l=1
X64 a_17000_n3300# bna avss avss sky130_fd_pr__nfet_g5v0d10v5 ad=1.75 pd=7.5 as=1.75 ps=7.5 w=7 l=1
X65 a_20300_100# bna a_20000_100# avss sky130_fd_pr__nfet_g5v0d10v5 ad=1.75 pd=7.5 as=1.75 ps=7.5 w=7 l=1
X66 a_16100_7400# bpa a_15800_7400# avdd sky130_fd_pr__pfet_g5v0d10v5 ad=1.25 pd=5.5 as=1.25 ps=5.5 w=5 l=1
X67 a_39500_1800# znp a_39200_1800# avss sky130_fd_pr__nfet_g5v0d10v5 ad=1.75 pd=7.5 as=1.75 ps=7.5 w=7 l=1
X68 a_55100_7400# bpb a_54800_7400# avdd sky130_fd_pr__pfet_g5v0d10v5 ad=1.25 pd=5.5 as=1.25 ps=5.5 w=5 l=1
X69 bpa enb a_1100_6100# avdd sky130_fd_pr__pfet_g5v0d10v5 ad=1.25 pd=5.5 as=1.25 ps=5.5 w=5 l=1
X70 a_8600_6100# bpa avdd avdd sky130_fd_pr__pfet_g5v0d10v5 ad=1.25 pd=5.5 as=1.25 ps=5.5 w=5 l=1
X71 a_36200_1800# znp avss avss sky130_fd_pr__nfet_g5v0d10v5 ad=1.75 pd=7.5 as=1.75 ps=7.5 w=7 l=1
X72 a_51800_7400# bpb a_51500_7400# avdd sky130_fd_pr__pfet_g5v0d10v5 ad=1.25 pd=5.5 as=1.25 ps=5.5 w=5 l=1
X73 o zpm avdd avdd sky130_fd_pr__pfet_g5v0d10v5 ad=1.25 pd=5.5 as=1.25 ps=5.5 w=5 l=1
X74 a_70100_n1600# znp a_69800_n1600# avss sky130_fd_pr__nfet_g5v0d10v5 ad=1.75 pd=7.5 as=1.75 ps=7.5 w=7 l=1
X75 bnb bnb a_3800_n3300# avss sky130_fd_pr__nfet_g5v0d10v5 ad=1.75 pd=7.5 as=1.75 ps=7.5 w=7 l=1
X76 a_45500_100# bnb a_45200_100# avss sky130_fd_pr__nfet_g5v0d10v5 ad=1.75 pd=7.5 as=1.75 ps=7.5 w=7 l=1
X77 a_1100_6100# bpb bpb avdd sky130_fd_pr__pfet_g5v0d10v5 ad=1.25 pd=5.5 as=1.25 ps=5.5 w=5 l=1
X78 a_75200_1800# znm o avss sky130_fd_pr__nfet_g5v0d10v5 ad=1.75 pd=7.5 as=1.75 ps=7.5 w=7 l=1
X79 a_47600_8700# zpp a_47300_8700# avdd sky130_fd_pr__pfet_g5v0d10v5 ad=1.25 pd=5.5 as=1.25 ps=5.5 w=5 l=1
X80 a_8000_n3300# en bna avss sky130_fd_pr__nfet_g5v0d10v5 ad=1.75 pd=7.5 as=1.75 ps=7.5 w=7 l=1
X81 wp bpb a_51800_10000# avdd sky130_fd_pr__pfet_g5v0d10v5 ad=1.25 pd=5.5 as=1.25 ps=5.5 w=5 l=1
X82 a_32600_n1600# znp a_32300_n1600# avss sky130_fd_pr__nfet_g5v0d10v5 ad=1.75 pd=7.5 as=1.75 ps=7.5 w=7 l=1
X83 a_1400_100# bna a_1100_100# avss sky130_fd_pr__nfet_g5v0d10v5 ad=1.75 pd=7.5 as=1.75 ps=7.5 w=7 l=1
X84 bnb bnb a_12200_100# avss sky130_fd_pr__nfet_g5v0d10v5 ad=1.75 pd=7.5 as=1.75 ps=7.5 w=7 l=1
X85 a_56000_10000# bpb a_55700_10000# avdd sky130_fd_pr__pfet_g5v0d10v5 ad=1.25 pd=5.5 as=1.25 ps=5.5 w=5 l=1
X86 a_36500_n1600# znp a_36200_n1600# avss sky130_fd_pr__nfet_g5v0d10v5 ad=1.75 pd=7.5 as=1.75 ps=7.5 w=7 l=1
X87 a_44300_8700# zpp a_44000_8700# avdd sky130_fd_pr__pfet_g5v0d10v5 ad=1.25 pd=5.5 as=1.25 ps=5.5 w=5 l=1
X88 znm bpb zpm avdd sky130_fd_pr__pfet_g5v0d10v5 ad=1.25 pd=5.5 as=1.25 ps=5.5 w=5 l=1
X89 a_1100_6100# bpb bpb avdd sky130_fd_pr__pfet_g5v0d10v5 ad=1.25 pd=5.5 as=1.25 ps=5.5 w=5 l=1
X90 a_22400_10000# zpp a_22100_10000# avdd sky130_fd_pr__pfet_g5v0d10v5 ad=1.25 pd=5.5 as=1.25 ps=5.5 w=5 l=1
X91 bpb bna a_18800_n1600# avss sky130_fd_pr__nfet_g5v0d10v5 ad=1.75 pd=7.5 as=1.75 ps=7.5 w=7 l=1
X92 bpa enb a_1100_6100# avdd sky130_fd_pr__pfet_g5v0d10v5 ad=1.25 pd=5.5 as=1.25 ps=5.5 w=5 l=1
X93 avdd zpp a_26000_10000# avdd sky130_fd_pr__pfet_g5v0d10v5 ad=1.25 pd=5.5 as=1.25 ps=5.5 w=5 l=1
X94 a_37700_100# znp a_37400_100# avss sky130_fd_pr__nfet_g5v0d10v5 ad=1.75 pd=7.5 as=1.75 ps=7.5 w=7 l=1
X95 xp im ynp avdd sky130_fd_pr__pfet_g5v0d10v5 ad=1.25 pd=5.5 as=1.25 ps=5.5 w=5 l=1
X96 a_36200_6100# bpa avdd avdd sky130_fd_pr__pfet_g5v0d10v5 ad=1.25 pd=5.5 as=1.25 ps=5.5 w=5 l=1
X97 o zpm avdd avdd sky130_fd_pr__pfet_g5v0d10v5 ad=1.25 pd=5.5 as=1.25 ps=5.5 w=5 l=1
X98 bnb bnb a_9800_n1600# avss sky130_fd_pr__nfet_g5v0d10v5 ad=1.75 pd=7.5 as=1.75 ps=7.5 w=7 l=1
X99 ynm ip xp avdd sky130_fd_pr__pfet_g5v0d10v5 ad=1.25 pd=5.5 as=1.25 ps=5.5 w=5 l=1
X100 avss znp a_40400_n3300# avss sky130_fd_pr__nfet_g5v0d10v5 ad=1.75 pd=7.5 as=1.75 ps=7.5 w=7 l=1
X101 a_29900_100# bna a_29600_100# avss sky130_fd_pr__nfet_g5v0d10v5 ad=1.75 pd=7.5 as=1.75 ps=7.5 w=7 l=1
X102 a_44600_n3300# bnb a_44300_n3300# avss sky130_fd_pr__nfet_g5v0d10v5 ad=1.75 pd=7.5 as=1.75 ps=7.5 w=7 l=1
X103 xp ip ynm avdd sky130_fd_pr__pfet_g5v0d10v5 ad=1.25 pd=5.5 as=1.25 ps=5.5 w=5 l=1
X104 a_48500_n3300# bna a_48200_n3300# avss sky130_fd_pr__nfet_g5v0d10v5 ad=1.75 pd=7.5 as=1.75 ps=7.5 w=7 l=1
X105 avdd zpm o avdd sky130_fd_pr__pfet_g5v0d10v5 ad=1.25 pd=5.5 as=1.25 ps=5.5 w=5 l=1
X106 a_31400_7400# bpa avdd avdd sky130_fd_pr__pfet_g5v0d10v5 ad=1.25 pd=5.5 as=1.25 ps=5.5 w=5 l=1
X107 a_39200_100# znp a_38900_100# avss sky130_fd_pr__nfet_g5v0d10v5 ad=1.75 pd=7.5 as=1.75 ps=7.5 w=7 l=1
X108 xn im a_24800_1800# avss sky130_fd_pr__nfet_g5v0d10v5 ad=1.75 pd=7.5 as=1.75 ps=7.5 w=7 l=1
X109 ypm zpp zpm avdd sky130_fd_pr__pfet_g5v0d10v5 ad=1.25 pd=5.5 as=1.25 ps=5.5 w=5 l=1
X110 a_27200_8700# zpp a_26900_8700# avdd sky130_fd_pr__pfet_g5v0d10v5 ad=1.25 pd=5.5 as=1.25 ps=5.5 w=5 l=1
X111 znm bnb a_63800_1800# avss sky130_fd_pr__nfet_g5v0d10v5 ad=1.75 pd=7.5 as=1.75 ps=7.5 w=7 l=1
X112 a_70400_7400# zpp a_70100_7400# avdd sky130_fd_pr__pfet_g5v0d10v5 ad=1.25 pd=5.5 as=1.25 ps=5.5 w=5 l=1
X113 a_21800_1800# bna avss avss sky130_fd_pr__nfet_g5v0d10v5 ad=1.75 pd=7.5 as=1.75 ps=7.5 w=7 l=1
X114 zpm zpp ypm avdd sky130_fd_pr__pfet_g5v0d10v5 ad=1.25 pd=5.5 as=1.25 ps=5.5 w=5 l=1
X115 a_60800_1800# znp znm avss sky130_fd_pr__nfet_g5v0d10v5 ad=1.75 pd=7.5 as=1.75 ps=7.5 w=7 l=1
X116 a_60200_n1600# znp ynm avss sky130_fd_pr__nfet_g5v0d10v5 ad=1.75 pd=7.5 as=1.75 ps=7.5 w=7 l=1
X117 avss enb bna avss sky130_fd_pr__nfet_g5v0d10v5 ad=1.75 pd=7.5 as=1.75 ps=7.5 w=7 l=1
X118 a_42800_n1600# bna a_42500_n1600# avss sky130_fd_pr__nfet_g5v0d10v5 ad=1.75 pd=7.5 as=1.75 ps=7.5 w=7 l=1
X119 wn bnb a_46400_n1600# avss sky130_fd_pr__nfet_g5v0d10v5 ad=1.75 pd=7.5 as=1.75 ps=7.5 w=7 l=1
X120 a_70100_10000# zpp a_69800_10000# avdd sky130_fd_pr__pfet_g5v0d10v5 ad=1.25 pd=5.5 as=1.25 ps=5.5 w=5 l=1
X121 ypp zpp a_24800_6100# avdd sky130_fd_pr__pfet_g5v0d10v5 ad=1.25 pd=5.5 as=1.25 ps=5.5 w=5 l=1
X122 ynp im xp avdd sky130_fd_pr__pfet_g5v0d10v5 ad=1.25 pd=5.5 as=1.25 ps=5.5 w=5 l=1
X123 avdd zpp a_63800_6100# avdd sky130_fd_pr__pfet_g5v0d10v5 ad=1.25 pd=5.5 as=1.25 ps=5.5 w=5 l=1
X124 a_36500_10000# bpa a_36200_10000# avdd sky130_fd_pr__pfet_g5v0d10v5 ad=1.25 pd=5.5 as=1.25 ps=5.5 w=5 l=1
X125 a_21800_6100# zpp avdd avdd sky130_fd_pr__pfet_g5v0d10v5 ad=1.25 pd=5.5 as=1.25 ps=5.5 w=5 l=1
X126 znm bpb zpm avdd sky130_fd_pr__pfet_g5v0d10v5 ad=1.25 pd=5.5 as=1.25 ps=5.5 w=5 l=1
X127 zpm bpb znm avdd sky130_fd_pr__pfet_g5v0d10v5 ad=1.25 pd=5.5 as=1.25 ps=5.5 w=5 l=1
X128 a_17600_7400# bpa avdd avdd sky130_fd_pr__pfet_g5v0d10v5 ad=1.25 pd=5.5 as=1.25 ps=5.5 w=5 l=1
X129 avdd bpa a_18800_10000# avdd sky130_fd_pr__pfet_g5v0d10v5 ad=1.25 pd=5.5 as=1.25 ps=5.5 w=5 l=1
X130 a_56600_7400# bpa wp avdd sky130_fd_pr__pfet_g5v0d10v5 ad=1.25 pd=5.5 as=1.25 ps=5.5 w=5 l=1
X131 a_1100_6100# bpb bpb avdd sky130_fd_pr__pfet_g5v0d10v5 ad=1.25 pd=5.5 as=1.25 ps=5.5 w=5 l=1
X132 avdd en bpa avdd sky130_fd_pr__pfet_g5v0d10v5 ad=1.25 pd=5.5 as=1.25 ps=5.5 w=5 l=1
X133 a_47000_1800# bna wn avss sky130_fd_pr__nfet_g5v0d10v5 ad=1.75 pd=7.5 as=1.75 ps=7.5 w=7 l=1
X134 avdd bpa a_53000_7400# avdd sky130_fd_pr__pfet_g5v0d10v5 ad=1.25 pd=5.5 as=1.25 ps=5.5 w=5 l=1
X135 znm znp a_60200_100# avss sky130_fd_pr__nfet_g5v0d10v5 ad=1.75 pd=7.5 as=1.75 ps=7.5 w=7 l=1
X136 a_72200_n3300# znm avss avss sky130_fd_pr__nfet_g5v0d10v5 ad=1.75 pd=7.5 as=1.75 ps=7.5 w=7 l=1
X137 a_50900_n3300# znp a_50600_n3300# avss sky130_fd_pr__nfet_g5v0d10v5 ad=1.75 pd=7.5 as=1.75 ps=7.5 w=7 l=1
X138 a_43700_1800# bnb a_43400_1800# avss sky130_fd_pr__nfet_g5v0d10v5 ad=1.75 pd=7.5 as=1.75 ps=7.5 w=7 l=1
X139 a_16100_8700# bpa a_15800_8700# avdd sky130_fd_pr__pfet_g5v0d10v5 ad=1.25 pd=5.5 as=1.25 ps=5.5 w=5 l=1
X140 a_1100_6100# bpb bpb avdd sky130_fd_pr__pfet_g5v0d10v5 ad=1.25 pd=5.5 as=1.25 ps=5.5 w=5 l=1
X141 a_54800_n3300# znp a_54500_n3300# avss sky130_fd_pr__nfet_g5v0d10v5 ad=1.75 pd=7.5 as=1.75 ps=7.5 w=7 l=1
X142 a_55100_8700# bpb a_54800_8700# avdd sky130_fd_pr__pfet_g5v0d10v5 ad=1.25 pd=5.5 as=1.25 ps=5.5 w=5 l=1
X143 a_40400_1800# znp a_40100_1800# avss sky130_fd_pr__nfet_g5v0d10v5 ad=1.75 pd=7.5 as=1.75 ps=7.5 w=7 l=1
X144 bpa enb a_1100_6100# avdd sky130_fd_pr__pfet_g5v0d10v5 ad=1.25 pd=5.5 as=1.25 ps=5.5 w=5 l=1
X145 a_58700_n3300# znp a_58400_n3300# avss sky130_fd_pr__nfet_g5v0d10v5 ad=1.75 pd=7.5 as=1.75 ps=7.5 w=7 l=1
X146 avss enb bna avss sky130_fd_pr__nfet_g5v0d10v5 ad=1.75 pd=7.5 as=1.75 ps=7.5 w=7 l=1
X147 a_8600_7400# bpa avdd avdd sky130_fd_pr__pfet_g5v0d10v5 ad=1.25 pd=5.5 as=1.25 ps=5.5 w=5 l=1
X148 a_51800_8700# bpb a_51500_8700# avdd sky130_fd_pr__pfet_g5v0d10v5 ad=1.25 pd=5.5 as=1.25 ps=5.5 w=5 l=1
X149 a_21200_n3300# bna a_20900_n3300# avss sky130_fd_pr__nfet_g5v0d10v5 ad=1.75 pd=7.5 as=1.75 ps=7.5 w=7 l=1
X150 a_1100_6100# bpb bpb avdd sky130_fd_pr__pfet_g5v0d10v5 ad=1.25 pd=5.5 as=1.25 ps=5.5 w=5 l=1
X151 a_52700_100# znp a_52400_100# avss sky130_fd_pr__nfet_g5v0d10v5 ad=1.75 pd=7.5 as=1.75 ps=7.5 w=7 l=1
X152 a_70400_n1600# znp a_70100_n1600# avss sky130_fd_pr__nfet_g5v0d10v5 ad=1.75 pd=7.5 as=1.75 ps=7.5 w=7 l=1
X153 zpp zpp a_46700_6100# avdd sky130_fd_pr__pfet_g5v0d10v5 ad=1.25 pd=5.5 as=1.25 ps=5.5 w=5 l=1
X154 a_1100_6100# bpb bpb avdd sky130_fd_pr__pfet_g5v0d10v5 ad=1.25 pd=5.5 as=1.25 ps=5.5 w=5 l=1
X155 avss znm a_74000_n1600# avss sky130_fd_pr__nfet_g5v0d10v5 ad=1.75 pd=7.5 as=1.75 ps=7.5 w=7 l=1
X156 bpa enb a_1100_6100# avdd sky130_fd_pr__pfet_g5v0d10v5 ad=1.25 pd=5.5 as=1.25 ps=5.5 w=5 l=1
X157 a_53000_n1600# znp a_52700_n1600# avss sky130_fd_pr__nfet_g5v0d10v5 ad=1.75 pd=7.5 as=1.75 ps=7.5 w=7 l=1
X158 ypp zpp a_43400_6100# avdd sky130_fd_pr__pfet_g5v0d10v5 ad=1.25 pd=5.5 as=1.25 ps=5.5 w=5 l=1
X159 xp im ynp avdd sky130_fd_pr__pfet_g5v0d10v5 ad=1.25 pd=5.5 as=1.25 ps=5.5 w=5 l=1
X160 zpm bpb znm avdd sky130_fd_pr__pfet_g5v0d10v5 ad=1.25 pd=5.5 as=1.25 ps=5.5 w=5 l=1
X161 a_56900_n1600# znp a_56600_n1600# avss sky130_fd_pr__nfet_g5v0d10v5 ad=1.75 pd=7.5 as=1.75 ps=7.5 w=7 l=1
X162 a_40400_6100# bpa a_40100_6100# avdd sky130_fd_pr__pfet_g5v0d10v5 ad=1.25 pd=5.5 as=1.25 ps=5.5 w=5 l=1
X163 zpp bnb a_44600_100# avss sky130_fd_pr__nfet_g5v0d10v5 ad=1.75 pd=7.5 as=1.75 ps=7.5 w=7 l=1
X164 a_36200_7400# bpa avdd avdd sky130_fd_pr__pfet_g5v0d10v5 ad=1.25 pd=5.5 as=1.25 ps=5.5 w=5 l=1
X165 a_29900_1800# bna a_29600_1800# avss sky130_fd_pr__nfet_g5v0d10v5 ad=1.75 pd=7.5 as=1.75 ps=7.5 w=7 l=1
X166 zpp zpp a_42500_10000# avdd sky130_fd_pr__pfet_g5v0d10v5 ad=1.25 pd=5.5 as=1.25 ps=5.5 w=5 l=1
X167 a_23300_n1600# bna a_23000_n1600# avss sky130_fd_pr__nfet_g5v0d10v5 ad=1.75 pd=7.5 as=1.75 ps=7.5 w=7 l=1
X168 a_2300_n3300# bnb a_11600_100# avss sky130_fd_pr__nfet_g5v0d10v5 ad=1.75 pd=7.5 as=1.75 ps=7.5 w=7 l=1
X169 a_68900_1800# znp a_68600_1800# avss sky130_fd_pr__nfet_g5v0d10v5 ad=1.75 pd=7.5 as=1.75 ps=7.5 w=7 l=1
X170 o zpm avdd avdd sky130_fd_pr__pfet_g5v0d10v5 ad=1.25 pd=5.5 as=1.25 ps=5.5 w=5 l=1
X171 a_46700_10000# zpp a_46400_10000# avdd sky130_fd_pr__pfet_g5v0d10v5 ad=1.25 pd=5.5 as=1.25 ps=5.5 w=5 l=1
X172 a_27200_n1600# ip ypm avss sky130_fd_pr__nfet_g5v0d10v5 ad=1.75 pd=7.5 as=1.75 ps=7.5 w=7 l=1
X173 a_26600_1800# ip xn avss sky130_fd_pr__nfet_g5v0d10v5 ad=1.75 pd=7.5 as=1.75 ps=7.5 w=7 l=1
X174 a_54200_100# znp a_53900_100# avss sky130_fd_pr__nfet_g5v0d10v5 ad=1.75 pd=7.5 as=1.75 ps=7.5 w=7 l=1
X175 bna enb avss avss sky130_fd_pr__nfet_g5v0d10v5 ad=1.75 pd=7.5 as=3.5 ps=15 w=7 l=1
X176 a_70100_100# znp a_69800_100# avss sky130_fd_pr__nfet_g5v0d10v5 ad=1.75 pd=7.5 as=1.75 ps=7.5 w=7 l=1
X177 a_65600_1800# bnb znm avss sky130_fd_pr__nfet_g5v0d10v5 ad=1.75 pd=7.5 as=1.75 ps=7.5 w=7 l=1
X178 ynm ip xp avdd sky130_fd_pr__pfet_g5v0d10v5 ad=1.25 pd=5.5 as=1.25 ps=5.5 w=5 l=1
X179 a_23300_1800# bna a_23000_1800# avss sky130_fd_pr__nfet_g5v0d10v5 ad=1.75 pd=7.5 as=1.75 ps=7.5 w=7 l=1
X180 a_21200_100# bna a_20900_100# avss sky130_fd_pr__nfet_g5v0d10v5 ad=1.75 pd=7.5 as=1.75 ps=7.5 w=7 l=1
X181 a_37100_100# znp a_36800_100# avss sky130_fd_pr__nfet_g5v0d10v5 ad=1.75 pd=7.5 as=1.75 ps=7.5 w=7 l=1
X182 zpm bnb a_62000_1800# avss sky130_fd_pr__nfet_g5v0d10v5 ad=1.75 pd=7.5 as=1.75 ps=7.5 w=7 l=1
X183 xp ip ynm avdd sky130_fd_pr__pfet_g5v0d10v5 ad=1.25 pd=5.5 as=1.25 ps=5.5 w=5 l=1
X184 avdd zpm o avdd sky130_fd_pr__pfet_g5v0d10v5 ad=1.25 pd=5.5 as=1.25 ps=5.5 w=5 l=1
X185 a_31400_8700# bpa avdd avdd sky130_fd_pr__pfet_g5v0d10v5 ad=1.25 pd=5.5 as=1.25 ps=5.5 w=5 l=1
X186 a_70400_8700# zpp a_70100_8700# avdd sky130_fd_pr__pfet_g5v0d10v5 ad=1.25 pd=5.5 as=1.25 ps=5.5 w=5 l=1
X187 ynm znp a_60800_n3300# avss sky130_fd_pr__nfet_g5v0d10v5 ad=1.75 pd=7.5 as=1.75 ps=7.5 w=7 l=1
X188 a_46400_100# bnb a_46100_100# avss sky130_fd_pr__nfet_g5v0d10v5 ad=1.75 pd=7.5 as=1.75 ps=7.5 w=7 l=1
X189 ypm zpp a_29600_6100# avdd sky130_fd_pr__pfet_g5v0d10v5 ad=1.25 pd=5.5 as=1.25 ps=5.5 w=5 l=1
X190 a_65000_n3300# bnb zpm avss sky130_fd_pr__nfet_g5v0d10v5 ad=1.75 pd=7.5 as=1.75 ps=7.5 w=7 l=1
X191 a_2300_n3300# bna a_2000_100# avss sky130_fd_pr__nfet_g5v0d10v5 ad=1.75 pd=7.5 as=1.75 ps=7.5 w=7 l=1
X192 a_13400_100# bnb a_2300_n3300# avss sky130_fd_pr__nfet_g5v0d10v5 ad=1.75 pd=7.5 as=1.75 ps=7.5 w=7 l=1
X193 ypm zpp zpm avdd sky130_fd_pr__pfet_g5v0d10v5 ad=1.25 pd=5.5 as=1.25 ps=5.5 w=5 l=1
X194 a_68900_n3300# znp a_68600_n3300# avss sky130_fd_pr__nfet_g5v0d10v5 ad=1.75 pd=7.5 as=1.75 ps=7.5 w=7 l=1
X195 a_26600_6100# zpp avdd avdd sky130_fd_pr__pfet_g5v0d10v5 ad=1.25 pd=5.5 as=1.25 ps=5.5 w=5 l=1
X196 a_31400_n3300# znp avss avss sky130_fd_pr__nfet_g5v0d10v5 ad=1.75 pd=7.5 as=1.75 ps=7.5 w=7 l=1
X197 zpm zpp ypm avdd sky130_fd_pr__pfet_g5v0d10v5 ad=1.25 pd=5.5 as=1.25 ps=5.5 w=5 l=1
X198 a_23300_6100# zpp a_23000_6100# avdd sky130_fd_pr__pfet_g5v0d10v5 ad=1.25 pd=5.5 as=1.25 ps=5.5 w=5 l=1
X199 a_35300_n3300# znp a_35000_n3300# avss sky130_fd_pr__nfet_g5v0d10v5 ad=1.75 pd=7.5 as=1.75 ps=7.5 w=7 l=1
X200 avdd en bpa avdd sky130_fd_pr__pfet_g5v0d10v5 ad=1.25 pd=5.5 as=1.25 ps=5.5 w=5 l=1
X201 a_14000_n3300# bnb bnb avss sky130_fd_pr__nfet_g5v0d10v5 ad=1.75 pd=7.5 as=1.75 ps=7.5 w=7 l=1
X202 a_39200_n3300# znp a_38900_n3300# avss sky130_fd_pr__nfet_g5v0d10v5 ad=1.75 pd=7.5 as=1.75 ps=7.5 w=7 l=1
X203 ypm zpp zpm avdd sky130_fd_pr__pfet_g5v0d10v5 ad=1.25 pd=5.5 as=1.25 ps=5.5 w=5 l=1
X204 a_38600_100# znp ynm avss sky130_fd_pr__nfet_g5v0d10v5 ad=1.75 pd=7.5 as=1.75 ps=7.5 w=7 l=1
X205 a_17900_n3300# bna a_17600_n3300# avss sky130_fd_pr__nfet_g5v0d10v5 ad=1.75 pd=7.5 as=1.75 ps=7.5 w=7 l=1
X206 ypp zpp a_24800_7400# avdd sky130_fd_pr__pfet_g5v0d10v5 ad=1.25 pd=5.5 as=1.25 ps=5.5 w=5 l=1
X207 a_48500_1800# bna a_48200_1800# avss sky130_fd_pr__nfet_g5v0d10v5 ad=1.75 pd=7.5 as=1.75 ps=7.5 w=7 l=1
X208 avdd zpp a_63800_7400# avdd sky130_fd_pr__pfet_g5v0d10v5 ad=1.25 pd=5.5 as=1.25 ps=5.5 w=5 l=1
X209 a_21800_7400# zpp avdd avdd sky130_fd_pr__pfet_g5v0d10v5 ad=1.25 pd=5.5 as=1.25 ps=5.5 w=5 l=1
X210 a_70400_10000# zpp a_70100_10000# avdd sky130_fd_pr__pfet_g5v0d10v5 ad=1.25 pd=5.5 as=1.25 ps=5.5 w=5 l=1
X211 znm bpb zpm avdd sky130_fd_pr__pfet_g5v0d10v5 ad=1.25 pd=5.5 as=1.25 ps=5.5 w=5 l=1
X212 ynm znp a_66800_n1600# avss sky130_fd_pr__nfet_g5v0d10v5 ad=1.75 pd=7.5 as=1.75 ps=7.5 w=7 l=1
X213 a_45200_1800# bnb zpp avss sky130_fd_pr__nfet_g5v0d10v5 ad=1.75 pd=7.5 as=1.75 ps=7.5 w=7 l=1
X214 zpm bpb znm avdd sky130_fd_pr__pfet_g5v0d10v5 ad=1.25 pd=5.5 as=1.25 ps=5.5 w=5 l=1
X215 a_17600_8700# bpa avdd avdd sky130_fd_pr__pfet_g5v0d10v5 ad=1.25 pd=5.5 as=1.25 ps=5.5 w=5 l=1
X216 a_5000_n3300# bnb a_2300_n3300# avss sky130_fd_pr__nfet_g5v0d10v5 ad=1.75 pd=7.5 as=1.75 ps=7.5 w=7 l=1
X217 avdd zpm o avdd sky130_fd_pr__pfet_g5v0d10v5 ad=1.25 pd=5.5 as=1.25 ps=5.5 w=5 l=1
X218 a_56600_8700# bpa wp avdd sky130_fd_pr__pfet_g5v0d10v5 ad=1.25 pd=5.5 as=1.25 ps=5.5 w=5 l=1
X219 a_53000_10000# bpa a_52700_10000# avdd sky130_fd_pr__pfet_g5v0d10v5 ad=1.25 pd=5.5 as=1.25 ps=5.5 w=5 l=1
X220 a_1100_6100# bpb bpb avdd sky130_fd_pr__pfet_g5v0d10v5 ad=1.25 pd=5.5 as=1.25 ps=5.5 w=5 l=1
X221 bna en a_8600_n3300# avss sky130_fd_pr__nfet_g5v0d10v5 ad=1.75 pd=7.5 as=1.75 ps=7.5 w=7 l=1
X222 ynp znp a_33200_n1600# avss sky130_fd_pr__nfet_g5v0d10v5 ad=1.75 pd=7.5 as=1.75 ps=7.5 w=7 l=1
X223 avdd en bpa avdd sky130_fd_pr__pfet_g5v0d10v5 ad=1.25 pd=5.5 as=1.25 ps=5.5 w=5 l=1
X224 a_56900_10000# bpa a_56600_10000# avdd sky130_fd_pr__pfet_g5v0d10v5 ad=1.25 pd=5.5 as=1.25 ps=5.5 w=5 l=1
X225 avdd bpa a_53000_8700# avdd sky130_fd_pr__pfet_g5v0d10v5 ad=1.25 pd=5.5 as=1.25 ps=5.5 w=5 l=1
X226 a_37400_n1600# znp a_37100_n1600# avss sky130_fd_pr__nfet_g5v0d10v5 ad=1.75 pd=7.5 as=1.75 ps=7.5 w=7 l=1
X227 a_16100_n1600# bna a_15800_n1600# avss sky130_fd_pr__nfet_g5v0d10v5 ad=1.75 pd=7.5 as=1.75 ps=7.5 w=7 l=1
X228 a_23300_10000# zpp a_23000_10000# avdd sky130_fd_pr__pfet_g5v0d10v5 ad=1.25 pd=5.5 as=1.25 ps=5.5 w=5 l=1
X229 a_20000_n1600# bna a_19700_n1600# avss sky130_fd_pr__nfet_g5v0d10v5 ad=1.75 pd=7.5 as=1.75 ps=7.5 w=7 l=1
X230 a_27200_10000# zpp a_26900_10000# avdd sky130_fd_pr__pfet_g5v0d10v5 ad=1.25 pd=5.5 as=1.25 ps=5.5 w=5 l=1
X231 a_8600_8700# bpa avdd avdd sky130_fd_pr__pfet_g5v0d10v5 ad=1.25 pd=5.5 as=1.25 ps=5.5 w=5 l=1
X232 a_48500_6100# zpp a_48200_6100# avdd sky130_fd_pr__pfet_g5v0d10v5 ad=1.25 pd=5.5 as=1.25 ps=5.5 w=5 l=1
X233 a_45200_6100# zpp avdd avdd sky130_fd_pr__pfet_g5v0d10v5 ad=1.25 pd=5.5 as=1.25 ps=5.5 w=5 l=1
X234 a_1100_6100# bpb bpb avdd sky130_fd_pr__pfet_g5v0d10v5 ad=1.25 pd=5.5 as=1.25 ps=5.5 w=5 l=1
X235 a_2300_n3300# bnb a_6800_n1600# avss sky130_fd_pr__nfet_g5v0d10v5 ad=1.75 pd=7.5 as=1.75 ps=7.5 w=7 l=1
X236 a_200_1800# bna avss avss sky130_fd_pr__nfet_g5v0d10v5 ad=1.75 pd=7.5 as=1.75 ps=7.5 w=7 l=1
X237 zpp zpp a_46700_7400# avdd sky130_fd_pr__pfet_g5v0d10v5 ad=1.25 pd=5.5 as=1.25 ps=5.5 w=5 l=1
X238 a_41600_n3300# bna a_41300_n3300# avss sky130_fd_pr__nfet_g5v0d10v5 ad=1.75 pd=7.5 as=1.75 ps=7.5 w=7 l=1
X239 a_45500_n3300# bnb a_45200_n3300# avss sky130_fd_pr__nfet_g5v0d10v5 ad=1.75 pd=7.5 as=1.75 ps=7.5 w=7 l=1
X240 ypp zpp a_43400_7400# avdd sky130_fd_pr__pfet_g5v0d10v5 ad=1.25 pd=5.5 as=1.25 ps=5.5 w=5 l=1
X241 xp im ynp avdd sky130_fd_pr__pfet_g5v0d10v5 ad=1.25 pd=5.5 as=1.25 ps=5.5 w=5 l=1
X242 a_49400_n3300# znp avss avss sky130_fd_pr__nfet_g5v0d10v5 ad=1.75 pd=7.5 as=1.75 ps=7.5 w=7 l=1
X243 a_34100_1800# znp a_33800_1800# avss sky130_fd_pr__nfet_g5v0d10v5 ad=1.75 pd=7.5 as=1.75 ps=7.5 w=7 l=1
X244 a_40400_7400# bpa a_40100_7400# avdd sky130_fd_pr__pfet_g5v0d10v5 ad=1.25 pd=5.5 as=1.25 ps=5.5 w=5 l=1
X245 ypm ip a_27800_n3300# avss sky130_fd_pr__nfet_g5v0d10v5 ad=1.75 pd=7.5 as=1.75 ps=7.5 w=7 l=1
X246 a_52100_100# znp a_51800_100# avss sky130_fd_pr__nfet_g5v0d10v5 ad=1.75 pd=7.5 as=1.75 ps=7.5 w=7 l=1
X247 a_36200_8700# bpa avdd avdd sky130_fd_pr__pfet_g5v0d10v5 ad=1.25 pd=5.5 as=1.25 ps=5.5 w=5 l=1
X248 avss znm a_72800_1800# avss sky130_fd_pr__nfet_g5v0d10v5 ad=1.75 pd=7.5 as=1.75 ps=7.5 w=7 l=1
X249 a_30800_1800# bna a_30500_1800# avss sky130_fd_pr__nfet_g5v0d10v5 ad=1.75 pd=7.5 as=1.75 ps=7.5 w=7 l=1
X250 o zpm avdd avdd sky130_fd_pr__pfet_g5v0d10v5 ad=1.25 pd=5.5 as=1.25 ps=5.5 w=5 l=1
X251 a_61400_100# znp ynm avss sky130_fd_pr__nfet_g5v0d10v5 ad=1.75 pd=7.5 as=1.75 ps=7.5 w=7 l=1
X252 a_200_6100# bpa avdd avdd sky130_fd_pr__pfet_g5v0d10v5 ad=1.25 pd=5.5 as=1.25 ps=5.5 w=5 l=1
X253 a_43700_n1600# bnb a_43400_n1600# avss sky130_fd_pr__nfet_g5v0d10v5 ad=1.75 pd=7.5 as=1.75 ps=7.5 w=7 l=1
X254 znm bpb zpm avdd sky130_fd_pr__pfet_g5v0d10v5 ad=1.25 pd=5.5 as=1.25 ps=5.5 w=5 l=1
X255 a_47600_n1600# bna a_47300_n1600# avss sky130_fd_pr__nfet_g5v0d10v5 ad=1.75 pd=7.5 as=1.75 ps=7.5 w=7 l=1
X256 xp ip ynm avdd sky130_fd_pr__pfet_g5v0d10v5 ad=1.25 pd=5.5 as=1.25 ps=5.5 w=5 l=1
X257 xp im ynp avdd sky130_fd_pr__pfet_g5v0d10v5 ad=1.25 pd=5.5 as=1.25 ps=5.5 w=5 l=1
X258 a_53600_100# znp znp avss sky130_fd_pr__nfet_g5v0d10v5 ad=1.75 pd=7.5 as=1.75 ps=7.5 w=7 l=1
X259 avdd zpm o avdd sky130_fd_pr__pfet_g5v0d10v5 ad=1.25 pd=5.5 as=1.25 ps=5.5 w=5 l=1
X260 ypm zpp a_29600_7400# avdd sky130_fd_pr__pfet_g5v0d10v5 ad=1.25 pd=5.5 as=1.25 ps=5.5 w=5 l=1
X261 ynm ip xp avdd sky130_fd_pr__pfet_g5v0d10v5 ad=1.25 pd=5.5 as=1.25 ps=5.5 w=5 l=1
X262 a_30800_6100# zpp a_30500_6100# avdd sky130_fd_pr__pfet_g5v0d10v5 ad=1.25 pd=5.5 as=1.25 ps=5.5 w=5 l=1
X263 ypm zpp zpm avdd sky130_fd_pr__pfet_g5v0d10v5 ad=1.25 pd=5.5 as=1.25 ps=5.5 w=5 l=1
X264 a_16100_10000# bpa a_15800_10000# avdd sky130_fd_pr__pfet_g5v0d10v5 ad=1.25 pd=5.5 as=1.25 ps=5.5 w=5 l=1
X265 a_20600_100# bna a_20300_100# avss sky130_fd_pr__nfet_g5v0d10v5 ad=1.75 pd=7.5 as=1.75 ps=7.5 w=7 l=1
X266 a_26600_7400# zpp avdd avdd sky130_fd_pr__pfet_g5v0d10v5 ad=1.25 pd=5.5 as=1.25 ps=5.5 w=5 l=1
X267 a_20000_10000# bpa avdd avdd sky130_fd_pr__pfet_g5v0d10v5 ad=1.25 pd=5.5 as=1.25 ps=5.5 w=5 l=1
X268 zpm zpp ypm avdd sky130_fd_pr__pfet_g5v0d10v5 ad=1.25 pd=5.5 as=1.25 ps=5.5 w=5 l=1
X269 a_23300_7400# zpp a_23000_7400# avdd sky130_fd_pr__pfet_g5v0d10v5 ad=1.25 pd=5.5 as=1.25 ps=5.5 w=5 l=1
X270 a_17000_1800# bna avss avss sky130_fd_pr__nfet_g5v0d10v5 ad=1.75 pd=7.5 as=1.75 ps=7.5 w=7 l=1
X271 a_56000_1800# znp a_55700_1800# avss sky130_fd_pr__nfet_g5v0d10v5 ad=1.75 pd=7.5 as=1.75 ps=7.5 w=7 l=1
X272 ypm zpp zpm avdd sky130_fd_pr__pfet_g5v0d10v5 ad=1.25 pd=5.5 as=1.25 ps=5.5 w=5 l=1
X273 bnb bnb a_13400_1800# avss sky130_fd_pr__nfet_g5v0d10v5 ad=1.75 pd=7.5 as=1.75 ps=7.5 w=7 l=1
X274 a_45800_100# bnb a_45500_100# avss sky130_fd_pr__nfet_g5v0d10v5 ad=1.75 pd=7.5 as=1.75 ps=7.5 w=7 l=1
X275 a_52700_1800# znp a_52400_1800# avss sky130_fd_pr__nfet_g5v0d10v5 ad=1.75 pd=7.5 as=1.75 ps=7.5 w=7 l=1
X276 a_1100_6100# bpb bpb avdd sky130_fd_pr__pfet_g5v0d10v5 ad=1.25 pd=5.5 as=1.25 ps=5.5 w=5 l=1
X277 ypp zpp a_24800_8700# avdd sky130_fd_pr__pfet_g5v0d10v5 ad=1.25 pd=5.5 as=1.25 ps=5.5 w=5 l=1
X278 a_51800_n3300# znp ynp avss sky130_fd_pr__nfet_g5v0d10v5 ad=1.75 pd=7.5 as=1.75 ps=7.5 w=7 l=1
X279 a_1700_100# bna a_1400_100# avss sky130_fd_pr__nfet_g5v0d10v5 ad=1.75 pd=7.5 as=1.75 ps=7.5 w=7 l=1
X280 a_10400_1800# bnb bnb avss sky130_fd_pr__nfet_g5v0d10v5 ad=1.75 pd=7.5 as=1.75 ps=7.5 w=7 l=1
X281 a_55700_n3300# znp a_55400_n3300# avss sky130_fd_pr__nfet_g5v0d10v5 ad=1.75 pd=7.5 as=1.75 ps=7.5 w=7 l=1
X282 a_12800_100# bnb bnb avss sky130_fd_pr__nfet_g5v0d10v5 ad=1.75 pd=7.5 as=1.75 ps=7.5 w=7 l=1
X283 avdd zpp a_63800_8700# avdd sky130_fd_pr__pfet_g5v0d10v5 ad=1.25 pd=5.5 as=1.25 ps=5.5 w=5 l=1
X284 a_21800_8700# zpp avdd avdd sky130_fd_pr__pfet_g5v0d10v5 ad=1.25 pd=5.5 as=1.25 ps=5.5 w=5 l=1
X285 a_59600_n3300# znp a_59300_n3300# avss sky130_fd_pr__nfet_g5v0d10v5 ad=1.75 pd=7.5 as=1.75 ps=7.5 w=7 l=1
X286 zpm bpb znm avdd sky130_fd_pr__pfet_g5v0d10v5 ad=1.25 pd=5.5 as=1.25 ps=5.5 w=5 l=1
X287 a_8000_1800# en bna avss sky130_fd_pr__nfet_g5v0d10v5 ad=1.75 pd=7.5 as=1.75 ps=7.5 w=7 l=1
X288 avdd en bpa avdd sky130_fd_pr__pfet_g5v0d10v5 ad=1.25 pd=5.5 as=1.25 ps=5.5 w=5 l=1
X289 a_38000_100# znp a_37700_100# avss sky130_fd_pr__nfet_g5v0d10v5 ad=1.75 pd=7.5 as=1.75 ps=7.5 w=7 l=1
X290 a_2300_n3300# bnb a_4400_1800# avss sky130_fd_pr__nfet_g5v0d10v5 ad=1.75 pd=7.5 as=1.75 ps=7.5 w=7 l=1
X291 a_17000_6100# bpa avdd avdd sky130_fd_pr__pfet_g5v0d10v5 ad=1.25 pd=5.5 as=1.25 ps=5.5 w=5 l=1
X292 o znm a_71000_n1600# avss sky130_fd_pr__nfet_g5v0d10v5 ad=1.75 pd=7.5 as=1.75 ps=7.5 w=7 l=1
X293 a_56000_6100# bpb a_55700_6100# avdd sky130_fd_pr__pfet_g5v0d10v5 ad=1.25 pd=5.5 as=1.25 ps=5.5 w=5 l=1
X294 a_1400_1800# bna a_1100_1800# avss sky130_fd_pr__nfet_g5v0d10v5 ad=1.75 pd=7.5 as=1.75 ps=7.5 w=7 l=1